<?xml version="1.0" encoding="UTF-8"?>

<!-- generated on 03/11/20 21:39:47 by SUMO duarouter Version 0.32.0
<?xml version="1.0" encoding="UTF-8"?>

<configuration xmlns:xsi="http://www.w3.org/2001/XMLSchema-instance" xsi:noNamespaceSchemaLocation="http://sumo.dlr.de/xsd/duarouterConfiguration.xsd">

    <input>
        <net-file value="fuzzy_comp.net.xml"/>
        <route-files value="f_comp1.trips.xml"/>
    </input>

    <output>
        <output-file value="f_comp1.rou.xml"/>
        <alternatives-output value="f_comp1.rou.alt.xml"/>
    </output>

</configuration>
-->

<routes xmlns:xsi="http://www.w3.org/2001/XMLSchema-instance" xsi:noNamespaceSchemaLocation="http://sumo.dlr.de/xsd/routes_file.xsd">

    <vehicle id="0" type="CarA" depart="0.00" departLane="best">
        <route edges="3 6"/>
    </vehicle>
    <vehicle id="1" type="CarA" depart="1.00" departLane="best">
        <route edges="1 4"/>
    </vehicle>
    <vehicle id="2" type="CarA" depart="2.00" departLane="best">
        <route edges="7 6"/>
    </vehicle>
    <vehicle id="3" type="CarA" depart="3.00" departLane="best">
        <route edges="1 6"/>
    </vehicle>
    <vehicle id="4" type="CarA" depart="7.00" departLane="best">
        <route edges="1 4"/>
    </vehicle>
    <vehicle id="5" type="CarA" depart="14.00" departLane="best">
        <route edges="3 6"/>
    </vehicle>
    <vehicle id="6" type="CarA" depart="17.00" departLane="best">
        <route edges="3 6"/>
    </vehicle>
    <vehicle id="7" type="CarA" depart="20.00" departLane="best">
        <route edges="5 2"/>
    </vehicle>
    <vehicle id="8" type="CarA" depart="25.00" departLane="best">
        <route edges="7 8"/>
    </vehicle>
    <vehicle id="9" type="CarA" depart="26.00" departLane="best">
        <route edges="7 8"/>
    </vehicle>
    <vehicle id="10" type="CarA" depart="27.00" departLane="best">
        <route edges="5 8"/>
    </vehicle>
    <vehicle id="11" type="CarA" depart="32.00" departLane="best">
        <route edges="7 6"/>
    </vehicle>
    <vehicle id="12" type="CarA" depart="32.00" departLane="best">
        <route edges="3 8"/>
    </vehicle>
    <vehicle id="13" type="CarA" depart="34.00" departLane="best">
        <route edges="5 2"/>
    </vehicle>
    <vehicle id="14" type="CarA" depart="36.00" departLane="best">
        <route edges="3 6"/>
    </vehicle>
    <vehicle id="15" type="CarA" depart="39.00" departLane="best">
        <route edges="1 2"/>
    </vehicle>
    <vehicle id="16" type="CarA" depart="39.00" departLane="best">
        <route edges="5 6"/>
    </vehicle>
    <vehicle id="17" type="CarA" depart="39.00" departLane="best">
        <route edges="1 8"/>
    </vehicle>
    <vehicle id="18" type="CarA" depart="41.00" departLane="best">
        <route edges="5 2"/>
    </vehicle>
    <vehicle id="19" type="CarA" depart="45.00" departLane="best">
        <route edges="1 6"/>
    </vehicle>
    <vehicle id="20" type="CarA" depart="45.00" departLane="best">
        <route edges="7 6"/>
    </vehicle>
    <vehicle id="21" type="CarA" depart="47.00" departLane="best">
        <route edges="7 2"/>
    </vehicle>
    <vehicle id="22" type="CarA" depart="47.00" departLane="best">
        <route edges="7 6"/>
    </vehicle>
    <vehicle id="23" type="CarA" depart="48.00" departLane="best">
        <route edges="1 8"/>
    </vehicle>
    <vehicle id="24" type="CarA" depart="49.00" departLane="best">
        <route edges="3 4"/>
    </vehicle>
    <vehicle id="25" type="CarA" depart="50.00" departLane="best">
        <route edges="5 8"/>
    </vehicle>
    <vehicle id="26" type="CarA" depart="52.00" departLane="best">
        <route edges="5 4"/>
    </vehicle>
    <vehicle id="27" type="CarA" depart="54.00" departLane="best">
        <route edges="3 6"/>
    </vehicle>
    <vehicle id="28" type="CarA" depart="55.00" departLane="best">
        <route edges="7 8"/>
    </vehicle>
    <vehicle id="29" type="CarA" depart="60.00" departLane="best">
        <route edges="1 2"/>
    </vehicle>
    <vehicle id="30" type="CarA" depart="61.00" departLane="best">
        <route edges="3 8"/>
    </vehicle>
    <vehicle id="31" type="CarA" depart="62.00" departLane="best">
        <route edges="5 4"/>
    </vehicle>
    <vehicle id="32" type="CarA" depart="65.00" departLane="best">
        <route edges="3 2"/>
    </vehicle>
    <vehicle id="33" type="CarA" depart="66.00" departLane="best">
        <route edges="1 8"/>
    </vehicle>
    <vehicle id="34" type="CarA" depart="69.00" departLane="best">
        <route edges="3 2"/>
    </vehicle>
    <vehicle id="35" type="CarA" depart="70.00" departLane="best">
        <route edges="5 6"/>
    </vehicle>
    <vehicle id="36" type="CarA" depart="77.00" departLane="best">
        <route edges="3 2"/>
    </vehicle>
    <vehicle id="37" type="CarA" depart="78.00" departLane="best">
        <route edges="3 6"/>
    </vehicle>
    <vehicle id="38" type="CarA" depart="81.00" departLane="best">
        <route edges="3 6"/>
    </vehicle>
    <vehicle id="39" type="CarA" depart="81.00" departLane="best">
        <route edges="3 8"/>
    </vehicle>
    <vehicle id="40" type="CarA" depart="82.00" departLane="best">
        <route edges="5 6"/>
    </vehicle>
    <vehicle id="41" type="CarA" depart="85.00" departLane="best">
        <route edges="7 6"/>
    </vehicle>
    <vehicle id="42" type="CarA" depart="85.00" departLane="best">
        <route edges="3 8"/>
    </vehicle>
    <vehicle id="43" type="CarA" depart="86.00" departLane="best">
        <route edges="1 2"/>
    </vehicle>
    <vehicle id="44" type="CarA" depart="88.00" departLane="best">
        <route edges="3 4"/>
    </vehicle>
    <vehicle id="45" type="CarA" depart="89.00" departLane="best">
        <route edges="7 4"/>
    </vehicle>
    <vehicle id="46" type="CarA" depart="90.00" departLane="best">
        <route edges="3 4"/>
    </vehicle>
    <vehicle id="47" type="CarA" depart="93.00" departLane="best">
        <route edges="7 6"/>
    </vehicle>
    <vehicle id="48" type="CarA" depart="95.00" departLane="best">
        <route edges="3 4"/>
    </vehicle>
    <vehicle id="49" type="CarA" depart="95.00" departLane="best">
        <route edges="5 4"/>
    </vehicle>
    <vehicle id="50" type="CarA" depart="100.00" departLane="best">
        <route edges="1 2"/>
    </vehicle>
    <vehicle id="51" type="CarA" depart="103.00" departLane="best">
        <route edges="5 6"/>
    </vehicle>
    <vehicle id="52" type="CarA" depart="105.00" departLane="best">
        <route edges="3 2"/>
    </vehicle>
    <vehicle id="53" type="CarA" depart="108.00" departLane="best">
        <route edges="1 4"/>
    </vehicle>
    <vehicle id="54" type="CarA" depart="112.00" departLane="best">
        <route edges="1 8"/>
    </vehicle>
    <vehicle id="55" type="CarA" depart="115.00" departLane="best">
        <route edges="5 2"/>
    </vehicle>
    <vehicle id="56" type="CarA" depart="117.00" departLane="best">
        <route edges="1 2"/>
    </vehicle>
    <vehicle id="57" type="CarA" depart="118.00" departLane="best">
        <route edges="1 4"/>
    </vehicle>
    <vehicle id="58" type="CarA" depart="118.00" departLane="best">
        <route edges="3 6"/>
    </vehicle>
    <vehicle id="59" type="CarA" depart="119.00" departLane="best">
        <route edges="1 6"/>
    </vehicle>
    <vehicle id="60" type="CarA" depart="121.00" departLane="best">
        <route edges="5 8"/>
    </vehicle>
    <vehicle id="61" type="CarA" depart="125.00" departLane="best">
        <route edges="5 8"/>
    </vehicle>
    <vehicle id="62" type="CarA" depart="125.00" departLane="best">
        <route edges="1 6"/>
    </vehicle>
    <vehicle id="63" type="CarA" depart="129.00" departLane="best">
        <route edges="3 2"/>
    </vehicle>
    <vehicle id="64" type="CarA" depart="132.00" departLane="best">
        <route edges="7 8"/>
    </vehicle>
    <vehicle id="65" type="CarA" depart="132.00" departLane="best">
        <route edges="7 2"/>
    </vehicle>
    <vehicle id="66" type="CarA" depart="134.00" departLane="best">
        <route edges="3 8"/>
    </vehicle>
    <vehicle id="67" type="CarA" depart="134.00" departLane="best">
        <route edges="1 6"/>
    </vehicle>
    <vehicle id="68" type="CarA" depart="134.00" departLane="best">
        <route edges="1 6"/>
    </vehicle>
    <vehicle id="69" type="CarA" depart="135.00" departLane="best">
        <route edges="3 8"/>
    </vehicle>
    <vehicle id="70" type="CarA" depart="137.00" departLane="best">
        <route edges="5 6"/>
    </vehicle>
    <vehicle id="71" type="CarA" depart="137.00" departLane="best">
        <route edges="7 8"/>
    </vehicle>
    <vehicle id="72" type="CarA" depart="138.00" departLane="best">
        <route edges="1 2"/>
    </vehicle>
    <vehicle id="73" type="CarA" depart="142.00" departLane="best">
        <route edges="5 2"/>
    </vehicle>
    <vehicle id="74" type="CarA" depart="146.00" departLane="best">
        <route edges="7 6"/>
    </vehicle>
    <vehicle id="75" type="CarA" depart="146.00" departLane="best">
        <route edges="1 4"/>
    </vehicle>
    <vehicle id="76" type="CarA" depart="148.00" departLane="best">
        <route edges="1 8"/>
    </vehicle>
    <vehicle id="77" type="CarA" depart="149.00" departLane="best">
        <route edges="1 4"/>
    </vehicle>
    <vehicle id="78" type="CarA" depart="150.00" departLane="best">
        <route edges="1 6"/>
    </vehicle>
    <vehicle id="79" type="CarA" depart="150.00" departLane="best">
        <route edges="1 8"/>
    </vehicle>
    <vehicle id="80" type="CarA" depart="153.00" departLane="best">
        <route edges="3 2"/>
    </vehicle>
    <vehicle id="81" type="CarA" depart="153.00" departLane="best">
        <route edges="7 6"/>
    </vehicle>
    <vehicle id="82" type="CarA" depart="156.00" departLane="best">
        <route edges="1 4"/>
    </vehicle>
    <vehicle id="83" type="CarA" depart="159.00" departLane="best">
        <route edges="3 6"/>
    </vehicle>
    <vehicle id="84" type="CarA" depart="159.00" departLane="best">
        <route edges="3 6"/>
    </vehicle>
    <vehicle id="85" type="CarA" depart="162.00" departLane="best">
        <route edges="1 6"/>
    </vehicle>
    <vehicle id="86" type="CarA" depart="163.00" departLane="best">
        <route edges="1 8"/>
    </vehicle>
    <vehicle id="87" type="CarA" depart="167.00" departLane="best">
        <route edges="7 6"/>
    </vehicle>
    <vehicle id="88" type="CarA" depart="168.00" departLane="best">
        <route edges="7 2"/>
    </vehicle>
    <vehicle id="89" type="CarA" depart="169.00" departLane="best">
        <route edges="7 4"/>
    </vehicle>
    <vehicle id="90" type="CarA" depart="170.00" departLane="best">
        <route edges="1 2"/>
    </vehicle>
    <vehicle id="91" type="CarA" depart="172.00" departLane="best">
        <route edges="1 4"/>
    </vehicle>
    <vehicle id="92" type="CarA" depart="173.00" departLane="best">
        <route edges="7 4"/>
    </vehicle>
    <vehicle id="93" type="CarA" depart="174.00" departLane="best">
        <route edges="5 4"/>
    </vehicle>
    <vehicle id="94" type="CarA" depart="175.00" departLane="best">
        <route edges="3 4"/>
    </vehicle>
    <vehicle id="95" type="CarA" depart="177.00" departLane="best">
        <route edges="3 2"/>
    </vehicle>
    <vehicle id="96" type="CarA" depart="180.00" departLane="best">
        <route edges="3 8"/>
    </vehicle>
    <vehicle id="97" type="CarA" depart="184.00" departLane="best">
        <route edges="7 4"/>
    </vehicle>
    <vehicle id="98" type="CarA" depart="185.00" departLane="best">
        <route edges="3 6"/>
    </vehicle>
    <vehicle id="99" type="CarA" depart="186.00" departLane="best">
        <route edges="7 2"/>
    </vehicle>
    <vehicle id="100" type="CarA" depart="189.00" departLane="best">
        <route edges="3 6"/>
    </vehicle>
    <vehicle id="101" type="CarA" depart="191.00" departLane="best">
        <route edges="1 8"/>
    </vehicle>
    <vehicle id="102" type="CarA" depart="191.00" departLane="best">
        <route edges="7 4"/>
    </vehicle>
    <vehicle id="103" type="CarA" depart="191.00" departLane="best">
        <route edges="3 4"/>
    </vehicle>
    <vehicle id="104" type="CarA" depart="192.00" departLane="best">
        <route edges="5 4"/>
    </vehicle>
    <vehicle id="105" type="CarA" depart="193.00" departLane="best">
        <route edges="3 6"/>
    </vehicle>
    <vehicle id="106" type="CarA" depart="194.00" departLane="best">
        <route edges="1 8"/>
    </vehicle>
    <vehicle id="107" type="CarA" depart="199.00" departLane="best">
        <route edges="3 8"/>
    </vehicle>
    <vehicle id="108" type="CarA" depart="200.00" departLane="best">
        <route edges="3 4"/>
    </vehicle>
    <vehicle id="109" type="CarA" depart="201.00" departLane="best">
        <route edges="1 6"/>
    </vehicle>
    <vehicle id="110" type="CarA" depart="201.00" departLane="best">
        <route edges="7 2"/>
    </vehicle>
    <vehicle id="111" type="CarA" depart="202.00" departLane="best">
        <route edges="5 8"/>
    </vehicle>
    <vehicle id="112" type="CarA" depart="205.00" departLane="best">
        <route edges="1 4"/>
    </vehicle>
    <vehicle id="113" type="CarA" depart="208.00" departLane="best">
        <route edges="5 8"/>
    </vehicle>
    <vehicle id="114" type="CarA" depart="209.00" departLane="best">
        <route edges="1 8"/>
    </vehicle>
    <vehicle id="115" type="CarA" depart="210.00" departLane="best">
        <route edges="1 8"/>
    </vehicle>
    <vehicle id="116" type="CarA" depart="211.00" departLane="best">
        <route edges="3 6"/>
    </vehicle>
    <vehicle id="117" type="CarA" depart="215.00" departLane="best">
        <route edges="3 8"/>
    </vehicle>
    <vehicle id="118" type="CarA" depart="218.00" departLane="best">
        <route edges="1 4"/>
    </vehicle>
    <vehicle id="119" type="CarA" depart="218.00" departLane="best">
        <route edges="3 4"/>
    </vehicle>
    <vehicle id="120" type="CarA" depart="223.00" departLane="best">
        <route edges="5 2"/>
    </vehicle>
    <vehicle id="121" type="CarA" depart="224.00" departLane="best">
        <route edges="1 2"/>
    </vehicle>
    <vehicle id="122" type="CarA" depart="227.00" departLane="best">
        <route edges="1 4"/>
    </vehicle>
    <vehicle id="123" type="CarA" depart="227.00" departLane="best">
        <route edges="5 6"/>
    </vehicle>
    <vehicle id="124" type="CarA" depart="230.00" departLane="best">
        <route edges="1 8"/>
    </vehicle>
    <vehicle id="125" type="CarA" depart="230.00" departLane="best">
        <route edges="3 6"/>
    </vehicle>
    <vehicle id="126" type="CarA" depart="232.00" departLane="best">
        <route edges="5 4"/>
    </vehicle>
    <vehicle id="127" type="CarA" depart="235.00" departLane="best">
        <route edges="1 6"/>
    </vehicle>
    <vehicle id="128" type="CarA" depart="239.00" departLane="best">
        <route edges="7 2"/>
    </vehicle>
    <vehicle id="129" type="CarA" depart="240.00" departLane="best">
        <route edges="7 4"/>
    </vehicle>
    <vehicle id="130" type="CarA" depart="240.00" departLane="best">
        <route edges="7 2"/>
    </vehicle>
    <vehicle id="131" type="CarA" depart="241.00" departLane="best">
        <route edges="7 4"/>
    </vehicle>
    <vehicle id="132" type="CarA" depart="243.00" departLane="best">
        <route edges="3 4"/>
    </vehicle>
    <vehicle id="133" type="CarA" depart="243.00" departLane="best">
        <route edges="5 4"/>
    </vehicle>
    <vehicle id="134" type="CarA" depart="246.00" departLane="best">
        <route edges="1 6"/>
    </vehicle>
    <vehicle id="135" type="CarA" depart="247.00" departLane="best">
        <route edges="7 2"/>
    </vehicle>
    <vehicle id="136" type="CarA" depart="247.00" departLane="best">
        <route edges="5 4"/>
    </vehicle>
    <vehicle id="137" type="CarA" depart="248.00" departLane="best">
        <route edges="7 4"/>
    </vehicle>
    <vehicle id="138" type="CarA" depart="249.00" departLane="best">
        <route edges="5 2"/>
    </vehicle>
    <vehicle id="139" type="CarA" depart="250.00" departLane="best">
        <route edges="3 2"/>
    </vehicle>
    <vehicle id="140" type="CarA" depart="251.00" departLane="best">
        <route edges="1 8"/>
    </vehicle>
    <vehicle id="141" type="CarA" depart="251.00" departLane="best">
        <route edges="3 8"/>
    </vehicle>
    <vehicle id="142" type="CarA" depart="253.00" departLane="best">
        <route edges="1 8"/>
    </vehicle>
    <vehicle id="143" type="CarA" depart="254.00" departLane="best">
        <route edges="3 2"/>
    </vehicle>
    <vehicle id="144" type="CarA" depart="255.00" departLane="best">
        <route edges="1 6"/>
    </vehicle>
    <vehicle id="145" type="CarA" depart="260.00" departLane="best">
        <route edges="3 2"/>
    </vehicle>
    <vehicle id="146" type="CarA" depart="260.00" departLane="best">
        <route edges="5 2"/>
    </vehicle>
    <vehicle id="147" type="CarA" depart="261.00" departLane="best">
        <route edges="3 4"/>
    </vehicle>
    <vehicle id="148" type="CarA" depart="261.00" departLane="best">
        <route edges="3 4"/>
    </vehicle>
    <vehicle id="149" type="CarA" depart="263.00" departLane="best">
        <route edges="5 4"/>
    </vehicle>
    <vehicle id="150" type="CarA" depart="263.00" departLane="best">
        <route edges="7 4"/>
    </vehicle>
    <vehicle id="151" type="CarA" depart="265.00" departLane="best">
        <route edges="7 8"/>
    </vehicle>
    <vehicle id="152" type="CarA" depart="267.00" departLane="best">
        <route edges="1 4"/>
    </vehicle>
    <vehicle id="153" type="CarA" depart="268.00" departLane="best">
        <route edges="1 8"/>
    </vehicle>
    <vehicle id="154" type="CarA" depart="269.00" departLane="best">
        <route edges="7 6"/>
    </vehicle>
    <vehicle id="155" type="CarA" depart="277.00" departLane="best">
        <route edges="7 2"/>
    </vehicle>
    <vehicle id="156" type="CarA" depart="281.00" departLane="best">
        <route edges="1 6"/>
    </vehicle>
    <vehicle id="157" type="CarA" depart="283.00" departLane="best">
        <route edges="7 2"/>
    </vehicle>
    <vehicle id="158" type="CarA" depart="285.00" departLane="best">
        <route edges="5 2"/>
    </vehicle>
    <vehicle id="159" type="CarA" depart="288.00" departLane="best">
        <route edges="5 6"/>
    </vehicle>
    <vehicle id="160" type="CarA" depart="290.00" departLane="best">
        <route edges="7 8"/>
    </vehicle>
    <vehicle id="161" type="CarA" depart="292.00" departLane="best">
        <route edges="1 2"/>
    </vehicle>
    <vehicle id="162" type="CarA" depart="294.00" departLane="best">
        <route edges="1 4"/>
    </vehicle>
    <vehicle id="163" type="CarA" depart="296.00" departLane="best">
        <route edges="7 8"/>
    </vehicle>
    <vehicle id="164" type="CarA" depart="298.00" departLane="best">
        <route edges="3 8"/>
    </vehicle>
    <vehicle id="165" type="CarA" depart="301.00" departLane="best">
        <route edges="3 6"/>
    </vehicle>
    <vehicle id="166" type="CarA" depart="302.00" departLane="best">
        <route edges="5 2"/>
    </vehicle>
    <vehicle id="167" type="CarA" depart="306.00" departLane="best">
        <route edges="1 8"/>
    </vehicle>
    <vehicle id="168" type="CarA" depart="308.00" departLane="best">
        <route edges="1 8"/>
    </vehicle>
    <vehicle id="169" type="CarA" depart="308.00" departLane="best">
        <route edges="5 2"/>
    </vehicle>
    <vehicle id="170" type="CarA" depart="310.00" departLane="best">
        <route edges="5 6"/>
    </vehicle>
    <vehicle id="171" type="CarA" depart="311.00" departLane="best">
        <route edges="7 4"/>
    </vehicle>
    <vehicle id="172" type="CarA" depart="313.00" departLane="best">
        <route edges="1 2"/>
    </vehicle>
    <vehicle id="173" type="CarA" depart="316.00" departLane="best">
        <route edges="5 2"/>
    </vehicle>
    <vehicle id="174" type="CarA" depart="317.00" departLane="best">
        <route edges="5 2"/>
    </vehicle>
    <vehicle id="175" type="CarA" depart="317.00" departLane="best">
        <route edges="1 6"/>
    </vehicle>
    <vehicle id="176" type="CarA" depart="319.00" departLane="best">
        <route edges="7 2"/>
    </vehicle>
    <vehicle id="177" type="CarA" depart="320.00" departLane="best">
        <route edges="3 4"/>
    </vehicle>
    <vehicle id="178" type="CarA" depart="321.00" departLane="best">
        <route edges="7 2"/>
    </vehicle>
    <vehicle id="179" type="CarA" depart="321.00" departLane="best">
        <route edges="1 6"/>
    </vehicle>
    <vehicle id="180" type="CarA" depart="325.00" departLane="best">
        <route edges="5 8"/>
    </vehicle>
    <vehicle id="181" type="CarA" depart="325.00" departLane="best">
        <route edges="1 6"/>
    </vehicle>
    <vehicle id="182" type="CarA" depart="326.00" departLane="best">
        <route edges="1 2"/>
    </vehicle>
    <vehicle id="183" type="CarA" depart="329.00" departLane="best">
        <route edges="1 2"/>
    </vehicle>
    <vehicle id="184" type="CarA" depart="333.00" departLane="best">
        <route edges="5 4"/>
    </vehicle>
    <vehicle id="185" type="CarA" depart="333.00" departLane="best">
        <route edges="3 2"/>
    </vehicle>
    <vehicle id="186" type="CarA" depart="334.00" departLane="best">
        <route edges="5 8"/>
    </vehicle>
    <vehicle id="187" type="CarA" depart="335.00" departLane="best">
        <route edges="3 2"/>
    </vehicle>
    <vehicle id="188" type="CarA" depart="338.00" departLane="best">
        <route edges="5 6"/>
    </vehicle>
    <vehicle id="189" type="CarA" depart="342.00" departLane="best">
        <route edges="3 4"/>
    </vehicle>
    <vehicle id="190" type="CarA" depart="342.00" departLane="best">
        <route edges="1 2"/>
    </vehicle>
    <vehicle id="191" type="CarA" depart="344.00" departLane="best">
        <route edges="1 8"/>
    </vehicle>
    <vehicle id="192" type="CarA" depart="346.00" departLane="best">
        <route edges="1 2"/>
    </vehicle>
    <vehicle id="193" type="CarA" depart="347.00" departLane="best">
        <route edges="3 8"/>
    </vehicle>
    <vehicle id="194" type="CarA" depart="351.00" departLane="best">
        <route edges="5 4"/>
    </vehicle>
    <vehicle id="195" type="CarA" depart="352.00" departLane="best">
        <route edges="7 8"/>
    </vehicle>
    <vehicle id="196" type="CarA" depart="352.00" departLane="best">
        <route edges="5 2"/>
    </vehicle>
    <vehicle id="197" type="CarA" depart="354.00" departLane="best">
        <route edges="7 4"/>
    </vehicle>
    <vehicle id="198" type="CarA" depart="358.00" departLane="best">
        <route edges="1 8"/>
    </vehicle>
    <vehicle id="199" type="CarA" depart="359.00" departLane="best">
        <route edges="7 6"/>
    </vehicle>
    <vehicle id="200" type="CarA" depart="363.00" departLane="best">
        <route edges="3 8"/>
    </vehicle>
    <vehicle id="201" type="CarA" depart="367.00" departLane="best">
        <route edges="1 6"/>
    </vehicle>
    <vehicle id="202" type="CarA" depart="367.00" departLane="best">
        <route edges="5 4"/>
    </vehicle>
    <vehicle id="203" type="CarA" depart="372.00" departLane="best">
        <route edges="5 6"/>
    </vehicle>
    <vehicle id="204" type="CarA" depart="372.00" departLane="best">
        <route edges="7 8"/>
    </vehicle>
    <vehicle id="205" type="CarA" depart="375.00" departLane="best">
        <route edges="7 2"/>
    </vehicle>
    <vehicle id="206" type="CarA" depart="377.00" departLane="best">
        <route edges="3 4"/>
    </vehicle>
    <vehicle id="207" type="CarA" depart="378.00" departLane="best">
        <route edges="1 8"/>
    </vehicle>
    <vehicle id="208" type="CarA" depart="385.00" departLane="best">
        <route edges="7 8"/>
    </vehicle>
    <vehicle id="209" type="CarA" depart="389.00" departLane="best">
        <route edges="1 8"/>
    </vehicle>
    <vehicle id="210" type="CarA" depart="389.00" departLane="best">
        <route edges="5 6"/>
    </vehicle>
    <vehicle id="211" type="CarA" depart="392.00" departLane="best">
        <route edges="5 2"/>
    </vehicle>
    <vehicle id="212" type="CarA" depart="393.00" departLane="best">
        <route edges="5 6"/>
    </vehicle>
    <vehicle id="213" type="CarA" depart="400.00" departLane="best">
        <route edges="3 4"/>
    </vehicle>
    <vehicle id="214" type="CarA" depart="401.00" departLane="best">
        <route edges="7 6"/>
    </vehicle>
    <vehicle id="215" type="CarA" depart="401.00" departLane="best">
        <route edges="7 4"/>
    </vehicle>
    <vehicle id="216" type="CarA" depart="403.00" departLane="best">
        <route edges="7 8"/>
    </vehicle>
    <vehicle id="217" type="CarA" depart="403.00" departLane="best">
        <route edges="7 4"/>
    </vehicle>
    <vehicle id="218" type="CarA" depart="409.00" departLane="best">
        <route edges="7 2"/>
    </vehicle>
    <vehicle id="219" type="CarA" depart="409.00" departLane="best">
        <route edges="1 2"/>
    </vehicle>
    <vehicle id="220" type="CarA" depart="410.00" departLane="best">
        <route edges="5 4"/>
    </vehicle>
    <vehicle id="221" type="CarA" depart="411.00" departLane="best">
        <route edges="1 6"/>
    </vehicle>
    <vehicle id="222" type="CarA" depart="413.00" departLane="best">
        <route edges="7 6"/>
    </vehicle>
    <vehicle id="223" type="CarA" depart="416.00" departLane="best">
        <route edges="1 2"/>
    </vehicle>
    <vehicle id="224" type="CarA" depart="419.00" departLane="best">
        <route edges="1 4"/>
    </vehicle>
    <vehicle id="225" type="CarA" depart="420.00" departLane="best">
        <route edges="3 8"/>
    </vehicle>
    <vehicle id="226" type="CarA" depart="422.00" departLane="best">
        <route edges="7 2"/>
    </vehicle>
    <vehicle id="227" type="CarA" depart="428.00" departLane="best">
        <route edges="7 2"/>
    </vehicle>
    <vehicle id="228" type="CarA" depart="429.00" departLane="best">
        <route edges="7 2"/>
    </vehicle>
    <vehicle id="229" type="CarA" depart="430.00" departLane="best">
        <route edges="1 2"/>
    </vehicle>
    <vehicle id="230" type="CarA" depart="432.00" departLane="best">
        <route edges="1 2"/>
    </vehicle>
    <vehicle id="231" type="CarA" depart="433.00" departLane="best">
        <route edges="1 4"/>
    </vehicle>
    <vehicle id="232" type="CarA" depart="434.00" departLane="best">
        <route edges="1 2"/>
    </vehicle>
    <vehicle id="233" type="CarA" depart="437.00" departLane="best">
        <route edges="5 2"/>
    </vehicle>
    <vehicle id="234" type="CarA" depart="437.00" departLane="best">
        <route edges="5 2"/>
    </vehicle>
    <vehicle id="235" type="CarA" depart="438.00" departLane="best">
        <route edges="3 4"/>
    </vehicle>
    <vehicle id="236" type="CarA" depart="442.00" departLane="best">
        <route edges="5 2"/>
    </vehicle>
    <vehicle id="237" type="CarA" depart="445.00" departLane="best">
        <route edges="3 8"/>
    </vehicle>
    <vehicle id="238" type="CarA" depart="446.00" departLane="best">
        <route edges="1 8"/>
    </vehicle>
    <vehicle id="239" type="CarA" depart="448.00" departLane="best">
        <route edges="1 2"/>
    </vehicle>
    <vehicle id="240" type="CarA" depart="449.00" departLane="best">
        <route edges="3 4"/>
    </vehicle>
    <vehicle id="241" type="CarA" depart="450.00" departLane="best">
        <route edges="3 2"/>
    </vehicle>
    <vehicle id="242" type="CarA" depart="458.00" departLane="best">
        <route edges="7 2"/>
    </vehicle>
    <vehicle id="243" type="CarA" depart="462.00" departLane="best">
        <route edges="1 6"/>
    </vehicle>
    <vehicle id="244" type="CarA" depart="462.00" departLane="best">
        <route edges="7 6"/>
    </vehicle>
    <vehicle id="245" type="CarA" depart="465.00" departLane="best">
        <route edges="7 8"/>
    </vehicle>
    <vehicle id="246" type="CarA" depart="468.00" departLane="best">
        <route edges="5 2"/>
    </vehicle>
    <vehicle id="247" type="CarA" depart="472.00" departLane="best">
        <route edges="1 4"/>
    </vehicle>
    <vehicle id="248" type="CarA" depart="473.00" departLane="best">
        <route edges="3 4"/>
    </vehicle>
    <vehicle id="249" type="CarA" depart="473.00" departLane="best">
        <route edges="7 6"/>
    </vehicle>
    <vehicle id="250" type="CarA" depart="475.00" departLane="best">
        <route edges="5 8"/>
    </vehicle>
    <vehicle id="251" type="CarA" depart="477.00" departLane="best">
        <route edges="7 8"/>
    </vehicle>
    <vehicle id="252" type="CarA" depart="482.00" departLane="best">
        <route edges="5 6"/>
    </vehicle>
    <vehicle id="253" type="CarA" depart="487.00" departLane="best">