<?xml version="1.0" encoding="UTF-8"?>

<!-- generated on 03/15/20 22:40:19 by SUMO duarouter Version 0.32.0
<?xml version="1.0" encoding="UTF-8"?>

<configuration xmlns:xsi="http://www.w3.org/2001/XMLSchema-instance" xsi:noNamespaceSchemaLocation="http://sumo.dlr.de/xsd/duarouterConfiguration.xsd">

    <input>
        <net-file value="fuzzy_comp.net.xml"/>
        <route-files value="Test_comp.rou.xml"/>
    </input>

    <output>
        <output-file value="f_comps.rou.xml"/>
        <alternatives-output value="f_comps.rou.alt.xml"/>
    </output>

    <processing>
        <randomize-flows value="true"/>
    </processing>

</configuration>
-->

<routes xmlns:xsi="http://www.w3.org/2001/XMLSchema-instance" xsi:noNamespaceSchemaLocation="http://sumo.dlr.de/xsd/routes_file.xsd">
  
    <vehicle id="0.0" type="CarA" depart="0.79" color="red">
        <route edges="1 4"/>
    </vehicle>
    <vehicle id="0.1" type="CarA" depart="2.36" color="red">
        <route edges="1 4"/>
    </vehicle>
    <vehicle id="4.0" type="CarA" depart="2.75" color="magenta">
        <route edges="3 8"/>
    </vehicle>
    <vehicle id="2.0" type="CarA" depart="2.83" color="yellow">
        <route edges="1 8"/>
    </vehicle>
    <vehicle id="6.0" type="CarA" depart="3.08" color="red">
        <route edges="5 8"/>
    </vehicle>
    <vehicle id="3.0" type="CarA" depart="4.77" color="red">
        <route edges="3 2"/>
    </vehicle>
    <vehicle id="2.1" type="CarA" depart="6.14" color="yellow">
        <route edges="1 8"/>
    </vehicle>
    <vehicle id="2.2" type="CarA" depart="8.55" color="yellow">
        <route edges="1 8"/>
    </vehicle>
    <vehicle id="3.1" type="CarA" depart="8.91" color="red">
        <route edges="3 2"/>
    </vehicle>
    <vehicle id="0.2" type="CarA" depart="9.74" color="red">
        <route edges="1 4"/>
    </vehicle>
    <vehicle id="1.0" type="CarA" depart="11.12" color="magenta">
        <route edges="1 6"/>
    </vehicle>
    <vehicle id="6.1" type="CarA" depart="12.32" color="red">
        <route edges="5 8"/>
    </vehicle>
    <vehicle id="2.3" type="CarA" depart="12.93" color="yellow">
        <route edges="1 8"/>
    </vehicle>
    <vehicle id="0.3" type="CarA" depart="13.05" color="red">
        <route edges="1 4"/>
    </vehicle>
    <vehicle id="0.4" type="CarA" depart="13.56" color="red">
        <route edges="1 4"/>
    </vehicle>
    <vehicle id="0.5" type="CarA" depart="16.72" color="red">
        <route edges="1 4"/>
    </vehicle>
    <vehicle id="4.1" type="CarA" depart="17.15" color="magenta">
        <route edges="3 8"/>
    </vehicle>
    <vehicle id="0.6" type="CarA" depart="18.13" color="red">
        <route edges="1 4"/>
    </vehicle>
    <vehicle id="0.7" type="CarA" depart="18.39" color="red">
        <route edges="1 4"/>
    </vehicle>
    <vehicle id="6.2" type="CarA" depart="18.97" color="red">
        <route edges="5 8"/>
    </vehicle>
    <vehicle id="3.2" type="CarA" depart="19.61" color="red">
        <route edges="3 2"/>
    </vehicle>
    <vehicle id="9.0" type="CarA" depart="19.77" color="red">
        <route edges="7 6"/>
    </vehicle>
    <vehicle id="3.3" type="CarA" depart="20.23" color="red">
        <route edges="3 2"/>
    </vehicle>
    <vehicle id="3.4" type="CarA" depart="20.98" color="red">
        <route edges="3 2"/>
    </vehicle>
    <vehicle id="11.0" type="CarA" depart="22.28" color="yellow">
        <route edges="7 4"/>
    </vehicle>
    <vehicle id="0.8" type="CarA" depart="22.71" color="red">
        <route edges="1 4"/>
    </vehicle>
    <vehicle id="3.5" type="CarA" depart="23.05" color="red">
        <route edges="3 2"/>
    </vehicle>
    <vehicle id="11.1" type="CarA" depart="23.89" color="yellow">
        <route edges="7 4"/>
    </vehicle>
    <vehicle id="5.0" type="CarA" depart="24.98" color="yellow">
        <route edges="3 6"/>
    </vehicle>
    <vehicle id="2.4" type="CarA" depart="26.51" color="yellow">
        <route edges="1 8"/>
    </vehicle>
    <vehicle id="0.9" type="CarA" depart="27.48" color="red">
        <route edges="1 4"/>
    </vehicle>
    <vehicle id="9.1" type="CarA" depart="29.15" color="red">
        <route edges="7 6"/>
    </vehicle>
    <vehicle id="5.1" type="CarA" depart="33.54" color="yellow">
        <route edges="3 6"/>
    </vehicle>
    <vehicle id="6.3" type="CarA" depart="35.70" color="red">
        <route edges="5 8"/>
    </vehicle>
    <vehicle id="6.4" type="CarA" depart="36.64" color="red">
        <route edges="5 8"/>
    </vehicle>
    <vehicle id="0.10" type="CarA" depart="36.86" color="red">
        <route edges="1 4"/>
    </vehicle>
    <vehicle id="3.6" type="CarA" depart="37.70" color="red">
        <route edges="3 2"/>
    </vehicle>
    <vehicle id="3.7" type="CarA" depart="37.74" color="red">
        <route edges="3 2"/>
    </vehicle>
    <vehicle id="8.0" type="CarA" depart="38.97" color="yellow">
        <route edges="5 2"/>
    </vehicle>
    <vehicle id="0.11" type="CarA" depart="39.03" color="red">
        <route edges="1 4"/>
    </vehicle>
    <vehicle id="9.2" type="CarA" depart="39.29" color="red">
        <route edges="7 6"/>
    </vehicle>
    <vehicle id="8.1" type="CarA" depart="40.97" color="yellow">
        <route edges="5 2"/>
    </vehicle>
    <vehicle id="4.2" type="CarA" depart="46.90" color="magenta">
        <route edges="3 8"/>
    </vehicle>
    <vehicle id="0.12" type="CarA" depart="47.01" color="red">
        <route edges="1 4"/>
    </vehicle>
    <vehicle id="6.5" type="CarA" depart="47.16" color="red">
        <route edges="5 8"/>
    </vehicle>
    <vehicle id="6.6" type="CarA" depart="47.95" color="red">
        <route edges="5 8"/>
    </vehicle>
    <vehicle id="9.3" type="CarA" depart="48.37" color="red">
        <route edges="7 6"/>
    </vehicle>
    <vehicle id="0.13" type="CarA" depart="50.60" color="red">
        <route edges="1 4"/>
    </vehicle>
    <vehicle id="2.5" type="CarA" depart="52.47" color="yellow">
        <route edges="1 8"/>
    </vehicle>
    <vehicle id="5.2" type="CarA" depart="53.69" color="yellow">
        <route edges="3 6"/>
    </vehicle>
    <vehicle id="3.8" type="CarA" depart="54.47" color="red">
        <route edges="3 2"/>
    </vehicle>
    <vehicle id="0.14" type="CarA" depart="55.65" color="red">
        <route edges="1 4"/>
    </vehicle>
    <vehicle id="5.3" type="CarA" depart="56.51" color="yellow">
        <route edges="3 6"/>
    </vehicle>
    <vehicle id="9.4" type="CarA" depart="57.01" color="red">
        <route edges="7 6"/>
    </vehicle>
    <vehicle id="0.15" type="CarA" depart="57.85" color="red">
        <route edges="1 4"/>
    </vehicle>
    <vehicle id="6.7" type="CarA" depart="58.02" color="red">
        <route edges="5 8"/>
    </vehicle>
    <vehicle id="3.9" type="CarA" depart="58.23" color="red">
        <route edges="3 2"/>
    </vehicle>
    <vehicle id="9.5" type="CarA" depart="59.07" color="red">
        <route edges="7 6"/>
    </vehicle>
    <vehicle id="9.6" type="CarA" depart="60.19" color="red">
        <route edges="7 6"/>
    </vehicle>
    <vehicle id="6.8" type="CarA" depart="62.23" color="red">
        <route edges="5 8"/>
    </vehicle>
    <vehicle id="10.0" type="CarA" depart="62.26" color="magenta">
        <route edges="7 2"/>
    </vehicle>
    <vehicle id="11.2" type="CarA" depart="62.37" color="yellow">
        <route edges="7 4"/>
    </vehicle>
    <vehicle id="11.3" type="CarA" depart="63.18" color="yellow">
        <route edges="7 4"/>
    </vehicle>
    <vehicle id="6.9" type="CarA" depart="63.32" color="red">
        <route edges="5 8"/>
    </vehicle>
    <vehicle id="3.10" type="CarA" depart="64.90" color="red">
        <route edges="3 2"/>
    </vehicle>
    <vehicle id="8.2" type="CarA" depart="67.30" color="yellow">
        <route edges="5 2"/>
    </vehicle>
    <vehicle id="3.11" type="CarA" depart="70.25" color="red">
        <route edges="3 2"/>
    </vehicle>
    <vehicle id="5.4" type="CarA" depart="70.72" color="yellow">
        <route edges="3 6"/>
    </vehicle>
    <vehicle id="10.1" type="CarA" depart="72.86" color="magenta">
        <route edges="7 2"/>
    </vehicle>
    <vehicle id="5.5" type="CarA" depart="73.98" color="yellow">
        <route edges="3 6"/>
    </vehicle>
    <vehicle id="9.7" type="CarA" depart="75.16" color="red">
        <route edges="7 6"/>
    </vehicle>
    <vehicle id="6.10" type="CarA" depart="76.05" color="red">
        <route edges="5 8"/>
    </vehicle>
    <vehicle id="3.12" type="CarA" depart="76.76" color="red">
        <route edges="3 2"/>
    </vehicle>
    <vehicle id="9.8" type="CarA" depart="76.97" color="red">
        <route edges="7 6"/>
    </vehicle>
    <vehicle id="3.13" type="CarA" depart="77.89" color="red">
        <route edges="3 2"/>
    </vehicle>
    <vehicle id="9.9" type="CarA" depart="79.47" color="red">
        <route edges="7 6"/>
    </vehicle>
    <vehicle id="2.6" type="CarA" depart="79.84" color="yellow">
        <route edges="1 8"/>
    </vehicle>
    <vehicle id="3.14" type="CarA" depart="80.11" color="red">
        <route edges="3 2"/>
    </vehicle>
    <vehicle id="0.16" type="CarA" depart="81.63" color="red">
        <route edges="1 4"/>
    </vehicle>
    <vehicle id="3.15" type="CarA" depart="82.30" color="red">
        <route edges="3 2"/>
    </vehicle>
    <vehicle id="8.3" type="CarA" depart="88.31" color="yellow">
        <route edges="5 2"/>
    </vehicle>
    <vehicle id="0.17" type="CarA" depart="88.60" color="red">
        <route edges="1 4"/>
    </vehicle>
    <vehicle id="7.0" type="CarA" depart="88.88" color="magenta">
        <route edges="5 4"/>
    </vehicle>
    <vehicle id="9.10" type="CarA" depart="89.14" color="red">
        <route edges="7 6"/>
    </vehicle>
    <vehicle id="6.11" type="CarA" depart="89.32" color="red">
        <route edges="5 8"/>
    </vehicle>
    <vehicle id="0.18" type="CarA" depart="89.59" color="red">
        <route edges="1 4"/>
    </vehicle>
    <vehicle id="3.16" type="CarA" depart="89.91" color="red">
        <route edges="3 2"/>
    </vehicle>
    <vehicle id="6.12" type="CarA" depart="89.96" color="red">
        <route edges="5 8"/>
    </vehicle>
    <vehicle id="3.17" type="CarA" depart="90.56" color="red">
        <route edges="3 2"/>
    </vehicle>
    <vehicle id="3.18" type="CarA" depart="91.39" color="red">
        <route edges="3 2"/>
    </vehicle>
    <vehicle id="8.4" type="CarA" depart="92.51" color="yellow">
        <route edges="5 2"/>
    </vehicle>
    <vehicle id="5.6" type="CarA" depart="94.44" color="yellow">
        <route edges="3 6"/>
    </vehicle>
    <vehicle id="0.19" type="CarA" depart="94.84" color="red">
        <route edges="1 4"/>
    </vehicle>
    <vehicle id="9.11" type="CarA" depart="95.19" color="red">
        <route edges="7 6"/>
    </vehicle>
    <vehicle id="8.5" type="CarA" depart="95.90" color="yellow">
        <route edges="5 2"/>
    </vehicle>
    <vehicle id="9.12" type="CarA" depart="96.84" color="red">
        <route edges="7 6"/>
    </vehicle>
    <vehicle id="8.6" type="CarA" depart="98.80" color="yellow">
        <route edges="5 2"/>
    </vehicle>
    <vehicle id="0.20" type="CarA" depart="100.63" color="red">
        <route edges="1 4"/>
    </vehicle>
    <vehicle id="1.1" type="CarA" depart="101.43" color="magenta">
        <route edges="1 6"/>
    </vehicle>
    <vehicle id="6.13" type="CarA" depart="102.58" color="red">
        <route edges="5 8"/>
    </vehicle>
    <vehicle id="8.7" type="CarA" depart="104.65" color="yellow">
        <route edges="5 2"/>
    </vehicle>
    <vehicle id="3.19" type="CarA" depart="105.18" color="red">
        <route edges="3 2"/>
    </vehicle>
    <vehicle id="3.20" type="CarA" depart="106.94" color="red">
        <route edges="3 2"/>
    </vehicle>
    <vehicle id="0.21" type="CarA" depart="107.79" color="red">
        <route edges="1 4"/>
    </vehicle>
    <vehicle id="3.21" type="CarA" depart="107.93" color="red">
        <route edges="3 2"/>
    </vehicle>
    <vehicle id="6.14" type="CarA" depart="108.25" color="red">
        <route edges="5 8"/>
    </vehicle>
    <vehicle id="0.22" type="CarA" depart="108.52" color="red">
        <route edges="1 4"/>
    </vehicle>
    <vehicle id="8.8" type="CarA" depart="108.86" color="yellow">
        <route edges="5 2"/>
    </vehicle>
    <vehicle id="3.22" type="CarA" depart="109.27" color="red">
        <route edges="3 2"/>
    </vehicle>
    <vehicle id="8.9" type="CarA" depart="110.09" color="yellow">
        <route edges="5 2"/>
    </vehicle>
    <vehicle id="3.23" type="CarA" depart="111.65" color="red">
        <route edges="3 2"/>
    </vehicle>
    <vehicle id="3.24" type="CarA" depart="114.89" color="red">
        <route edges="3 2"/>
    </vehicle>
    <vehicle id="0.23" type="CarA" depart="116.59" color="red">
        <route edges="1 4"/>
    </vehicle>
    <vehicle id="9.13" type="CarA" depart="120.35" color="red">
        <route edges="7 6"/>
    </vehicle>
    <vehicle id="10.2" type="CarA" depart="120.70" color="magenta">
        <route edges="7 2"/>
    </vehicle>
    <vehicle id="0.24" type="CarA" depart="121.78" color="red">
        <route edges="1 4"/>
    </vehicle>
    <vehicle id="9.14" type="CarA" depart="121.86" color="red">
        <route edges="7 6"/>
    </vehicle>
    <vehicle id="8.10" type="CarA" depart="122.49" color="yellow">
        <route edges="5 2"/>
    </vehicle>
    <vehicle id="3.25" type="CarA" depart="122.68" color="red">
        <route edges="3 2"/>
    </vehicle>
    <vehicle id="9.15" type="CarA" depart="122.89" color="red">
        <route edges="7 6"/>
    </vehicle>
    <vehicle id="6.15" type="CarA" depart="123.04" color="red">
        <route edges="5 8"/>
    </vehicle>
    <vehicle id="9.16" type="CarA" depart="125.00" color="red">
        <route edges="7 6"/>
    </vehicle>
    <vehicle id="9.17" type="CarA" depart="127.28" color="red">
        <route edges="7 6"/>
    </vehicle>
    <vehicle id="3.26" type="CarA" depart="128.34" color="red">
        <route edges="3 2"/>
    </vehicle>
    <vehicle id="0.25" type="CarA" depart="128.54" color="red">
        <route edges="1 4"/>
    </vehicle>
    <vehicle id="3.27" type="CarA" depart="130.11" color="red">
        <route edges="3 2"/>
    </vehicle>
    <vehicle id="4.3" type="CarA" depart="132.34" color="magenta">
        <route edges="3 8"/>
    </vehicle>
    <vehicle id="0.26" type="CarA" depart="136.66" color="red">
        <route edges="1 4"/>
    </vehicle>
    <vehicle id="8.11" type="CarA" depart="138.74" color="yellow">
        <route edges="5 2"/>
    </vehicle>
    <vehicle id="0.27" type="CarA" depart="139.18" color="red">
        <route edges="1 4"/>
    </vehicle>
    <vehicle id="9.18" type="CarA" depart="141.40" color="red">
        <route edges="7 6"/>
    </vehicle>
    <vehicle id="4.4" type="CarA" depart="142.85" color="magenta">
        <route edges="3 8"/>
    </vehicle>
    <vehicle id="3.28" type="CarA" depart="143.12" color="red">
        <route edges="3 2"/>
    </vehicle>
    <vehicle id="5.7" type="CarA" depart="145.86" color="yellow">
        <route edges="3 6"/>
    </vehicle>
    <vehicle id="3.29" type="CarA" depart="146.94" color="red">
        <route edges="3 2"/>
    </vehicle>
    <vehicle id="5.8" type="CarA" depart="148.98" color="yellow">
        <route edges="3 6"/>
    </vehicle>
    <vehicle id="4.5" type="CarA" depart="149.02" color="magenta">
        <route edges="3 8"/>
    </vehicle>
    <vehicle id="2.7" type="CarA" depart="149.63" color="yellow">
        <route edges="1 8"/>
    </vehicle>
    <vehicle id="10.3" type="CarA" depart="149.69" color="magenta">
        <route edges="7 2"/>
    </vehicle>
    <vehicle id="2.8" type="CarA" depart="150.40" color="yellow">
        <route edges="1 8"/>
    </vehicle>
    <vehicle id="0.28" type="CarA" depart="150.67" color="red">
        <route edges="1 4"/>
    </vehicle>
    <vehicle id="3.30" type="CarA" depart="153.28" color="red">
        <route edges="3 2"/>
    </vehicle>
    <vehicle id="4.6" type="CarA" depart="153.62" color="magenta">
        <route edges="3 8"/>
    </vehicle>
    <vehicle id="0.29" type="CarA" depart="158.69" color="red">
        <route edges="1 4"/>
    </vehicle>
    <vehicle id="5.9" type="CarA" depart="159.54" color="yellow">
        <route edges="3 6"/>
    </vehicle>
    <vehicle id="9.19" type="CarA" depart="161.60" color="red">
        <route edges="7 6"/>
    </vehicle>
    <vehicle id="6.16" type="CarA" depart="161.76" color="red">
        <route edges="5 8"/>
    </vehicle>
    <vehicle id="0.30" type="CarA" depart="163.02" color="red">
        <route edges="1 4"/>
    </vehicle>
    <vehicle id="4.7" type="CarA" depart="167.76" color="magenta">
        <route edges="3 8"/>
    </vehicle>
    <vehicle id="1.2" type="CarA" depart="168.38" color="magenta">
        <route edges="1 6"/>
    </vehicle>
    <vehicle id="0.31" type="CarA" depart="169.47" color="red">
        <route edges="1 4"/>
    </vehicle>
    <vehicle id="0.32" type="CarA" depart="169.75" color="red">
        <route edges="1 4"/>
    </vehicle>
    <vehicle id="1.3" type="CarA" depart="170.05" color="magenta">
        <route edges="1 6"/>
    </vehicle>
    <vehicle id="3.31" type="CarA" depart="171.44" color="red">
        <route edges="3 2"/>
    </vehicle>
    <vehicle id="9.20" type="CarA" depart="179.28" color="red">
        <route edges="7 6"/>
    </vehicle>
    <vehicle id="0.33" type="CarA" depart="179.52" color="red">
        <route edges="1 4"/>
    </vehicle>
    <vehicle id="2.9" type="CarA" depart="181.60" color="yellow">
        <route edges="1 8"/>
    </vehicle>
    <vehicle id="3.32" type="CarA" depart="182.42" color="red">
        <route edges="3 2"/>
    </vehicle>
    <vehicle id="9.21" type="CarA" depart="185.27" color="red">
        <route edges="7 6"/>
    </vehicle>
    <vehicle id="0.34" type="CarA" depart="186.01" color="red">
        <route edges="1 4"/>
    </vehicle>
    <vehicle id="7.1" type="CarA" depart="186.07" color="magenta">
        <route edges="5 4"/>
    </vehicle>
    <vehicle id="11.4" type="CarA" depart="186.49" color="yellow">
        <route edges="7 4"/>
    </vehicle>
    <vehicle id="3.33" type="CarA" depart="187.53" color="red">
        <route edges="3 2"/>
    </vehicle>
    <vehicle id="11.5" type="CarA" depart="187.95" color="yellow">
        <route edges="7 4"/>
    </vehicle>
    <vehicle id="0.35" type="CarA" depart="188.13" color="red">
        <route edges="1 4"/>
    </vehicle>
    <vehicle id="2.10" type="CarA" depart="188.21" color="yellow">
        <route edges="1 8"/>
    </vehicle>
    <vehicle id="3.34" type="CarA" depart="188.24" color="red">
        <route edges="3 2"/>
    </vehicle>
    <vehicle id="2.11" type="CarA" depart="189.20" color="yellow">
        <route edges="1 8"/>
    </vehicle>
    <vehicle id="2.12" type="CarA" depart="189.34" color="yellow">
        <route edges="1 8"/>
    </vehicle>
    <vehicle id="2.13" type="CarA" depart="191.24" color="yellow">
        <route edges="1 8"/>
    </vehicle>
    <vehicle id="0.36" type="CarA" depart="196.41" color="red">
        <route edges="1 4"/>
    </vehicle>
    <vehicle id="10.4" type="CarA" depart="196.78" color="magenta">
        <route edges="7 2"/>
    </vehicle>
    <vehicle id="10.5" type="CarA" depart="199.14" color="magenta">
        <route edges="7 2"/>
    </vehicle>
    <vehicle id="9.22" type="CarA" depart="200.40" color="red">
        <route edges="7 6"/>
    </vehicle>
    <vehicle id="3.35" type="CarA" depart="200.43" color="red">
        <route edges="3 2"/>
    </vehicle>
    <vehicle id="3.36" type="CarA" depart="201.49" color="red">
        <route edges="3 2"/>
    </vehicle>
    <vehicle id="0.37" type="CarA" depart="201.67" color="red">
        <route edges="1 4"/>
    </vehicle>
    <vehicle id="5.10" type="CarA" depart="202.67" color="yellow">
        <route edges="3 6"/>
    </vehicle>
    <vehicle id="2.14" type="CarA" depart="202.94" color="yellow">
        <route edges="1 8"/>
    </vehicle>
    <vehicle id="3.37" type="CarA" depart="204.30" color="red">
        <route edges="3 2"/>
    </vehicle>
    <vehicle id="11.6" type="CarA" depart="205.73" color="yellow">
        <route edges="7 4"/>
    </vehicle>
    <vehicle id="11.7" type="CarA" depart="206.86" color="yellow">
        <route edges="7 4"/>
    </vehicle>
    <vehicle id="2.15" type="CarA" depart="207.58" color="yellow">
        <route edges="1 8"/>
    </vehicle>
    <vehicle id="0.38" type="CarA" depart="207.72" color="red">
        <route edges="1 4"/>
    </vehicle>
    <vehicle id="2.16" type="CarA" depart="208.04" color="yellow">
        <route edges="1 8"/>
    </vehicle>
    <vehicle id="0.39" type="CarA" depart="209.51" color="red">
        <route edges="1 4"/>
    </vehicle>
    <vehicle id="1.4" type="CarA" depart="210.76" color="magenta">
        <route edges="1 6"/>
    </vehicle>
    <vehicle id="0.40" type="CarA" depart="211.05" color="red">
        <route edges="1 4"/>
    </vehicle>
    <vehicle id="6.17" type="CarA" depart="211.58" color="red">
        <route edges="5 8"/>
    </vehicle>
    <vehicle id="11.8" type="CarA" depart="211.69" color="yellow">
        <route edges="7 4"/>
    </vehicle>
    <vehicle id="0.41" type="CarA" depart="212.57" color="red">
        <route edges="1 4"/>
    </vehicle>
    <vehicle id="0.42" type="CarA" depart="214.16" color="red">
        <route edges="1 4"/>
    </vehicle>
    <vehicle id="0.43" type="CarA" depart="215.86" color="red">
        <route edges="1 4"/>
    </vehicle>
    <vehicle id="3.38" type="CarA" depart="217.98" color="red">
        <route edges="3 2"/>
    </vehicle>
    <vehicle id="8.12" type="CarA" depart="218.23" color="yellow">
        <route edges="5 2"/>
    </vehicle>
    <vehicle id="7.2" type="CarA" depart="220.16" color="magenta">
        <route edges="5 4"/>
    </vehicle>
    <vehicle id="3.39" type="CarA" depart="220.27" color="red">
        <route edges="3 2"/>
    </vehicle>
    <vehicle id="9.23" type="CarA" depart="220.53" color="red">
        <route edges="7 6"/>
    </vehicle>
    <vehicle id="3.40" type="CarA" depart="220.65" color="red">
        <route edges="3 2"/>
    </vehicle>
    <vehicle id="2.17" type="CarA" depart="222.36" color="yellow">
        <route edges="1 8"/>
    </vehicle>
    <vehicle id="3.41" type="CarA" depart="222.41" color="red">
        <route edges="3 2"/>
    </vehicle>
    <vehicle id="5.11" type="CarA" depart="222.49" color="yellow">
        <route edges="3 6"/>
    </vehicle>
    <vehicle id="8.13" type="CarA" depart="223.42" color="yellow">
        <route edges="5 2"/>
    </vehicle>
    <vehicle id="2.18" type="CarA" depart="224.07" color="yellow">
        <route edges="1 8"/>
    </vehicle>
    <vehicle id="0.44" type="CarA" depart="225.98" color="red">
        <route edges="1 4"/>
    </vehicle>
    <vehicle id="9.24" type="CarA" depart="227.50" color="red">
        <route edges="7 6"/>
    </vehicle>
    <vehicle id="2.19" type="CarA" depart="229.61" color="yellow">
        <route edges="1 8"/>
    </vehicle>
    <vehicle id="6.18" type="CarA" depart="230.92" color="red">
        <route edges="5 8"/>
    </vehicle>
    <vehicle id="11.9" type="CarA" depart="232.37" color="yellow">
        <route edges="7 4"/>
    </vehicle>
    <vehicle id="11.10" type="CarA" depart="232.39" color="yellow">
        <route edges="7 4"/>
    </vehicle>
    <vehicle id="2.20" type="CarA" depart="235.68" color="yellow">
        <route edges="1 8"/>
    </vehicle>
    <vehicle id="9.25" type="CarA" depart="236.20" color="red">
        <route edges="7 6"/>
    </vehicle>
    <vehicle id="0.45" type="CarA" depart="238.38" color="red">
        <route edges="1 4"/>
    </vehicle>
    <vehicle id="1.5" type="CarA" depart="240.76" color="magenta">
        <route edges="1 6"/>
    </vehicle>
    <vehicle id="3.42" type="CarA" depart="240.80" color="red">
        <route edges="3 2"/>
    </vehicle>
    <vehicle id="1.6" type="CarA" depart="241.82" color="magenta">
        <route edges="1 6"/>
    </vehicle>
    <vehicle id="3.43" type="CarA" depart="242.93" color="red">
        <route edges="3 2"/>
    </vehicle>
    <vehicle id="3.44" type="CarA" depart="243.94" color="red">
        <route edges="3 2"/>
    </vehicle>
    <vehicle id="2.21" type="CarA" depart="244.16" color="yellow">
        <route edges="1 8"/>
    </vehicle>
    <vehicle id="6.19" type="CarA" depart="244.71" color="red">
        <route edges="5 8"/>
    </vehicle>
    <vehicle id="11.11" type="CarA" depart="245.25" color="yellow">
        <route edges="7 4"/>
    </vehicle>
    <vehicle id="4.8" type="CarA" depart="245.75" color="magenta">
        <route edges="3 8"/>
    </vehicle>
    <vehicle id="3.45" type="CarA" depart="245.88" color="red">
        <route edges="3 2"/>
    </vehicle>
    <vehicle id="8.14" type="CarA" depart="248.19" color="yellow">
        <route edges="5 2"/>
    </vehicle>
    <vehicle id="10.6" type="CarA" depart="251.80" color="magenta">
        <route edges="7 2"/>
    </vehicle>
    <vehicle id="8.15" type="CarA" depart="251.89" color="yellow">
        <route edges="5 2"/>
    </vehicle>
    <vehicle id="11.12" type="CarA" depart="253.50" color="yellow">
        <route edges="7 4"/>
    </vehicle>
    <vehicle id="1.7" type="CarA" depart="254.09" color="magenta">
        <route edges="1 6"/>
    </vehicle>
    <vehicle id="6.20" type="CarA" depart="259.99" color="red">
        <route edges="5 8"/>
    </vehicle>
    <vehicle id="3.46" type="CarA" depart="260.97" color="red">
        <route edges="3 2"/>
    </vehicle>
    <vehicle id="9.26" type="CarA" depart="261.03" color="red">
        <route edges="7 6"/>
    </vehicle>
    <vehicle id="11.13" type="CarA" depart="262.29" color="yellow">
        <route edges="7 4"/>
    </vehicle>
    <vehicle id="4.9" type="CarA" depart="262.38" color="magenta">
        <route edges="3 8"/>
    </vehicle>
    <vehicle id="6.21" type="CarA" depart="263.80" color="red">
        <route edges="5 8"/>
    </vehicle>
    <vehicle id="8.16" type="CarA" depart="265.27" color="yellow">
        <route edges="5 2"/>
    </vehicle>
    <vehicle id="2.22" type="CarA" depart="265.28" color="yellow">
        <route edges="1 8"/>
    </vehicle>
    <vehicle id="9.27" type="CarA" depart="265.35" color="red">
        <route edges="7 6"/>
    </vehicle>
    <vehicle id="3.47" type="CarA" depart="265.77" color="red">
        <route edges="3 2"/>
    </vehicle>
    <vehicle id="5.12" type="CarA" depart="266.05" color="yellow">
        <route edges="3 6"/>
    </vehicle>
    <vehicle id="9.28" type="CarA" depart="268.08" color="red">
        <route edges="7 6"/>
    </vehicle>
    <vehicle id="9.29" type="CarA" depart="268.75" color="red">
        <route edges="7 6"/>
    </vehicle>
    <vehicle id="3.48" type="CarA" depart="269.15" color="red">
        <route edges="3 2"/>
    </vehicle>
    <vehicle id="11.14" type="CarA" depart="270.94" color="yellow">
        <route edges="7 4"/>
    </vehicle>
    <vehicle id="3.49" type="CarA" depart="272.92" color="red">
        <route edges="3 2"/>
    </vehicle>
    <vehicle id="8.17" type="CarA" depart="275.22" color="yellow">
        <route edges="5 2"/>
    </vehicle>
    <vehicle id="7.3" type="CarA" depart="276.13" color="magenta">
        <route edges="5 4"/>
    </vehicle>
    <vehicle id="3.50" type="CarA" depart="276.27" color="red">
        <route edges="3 2"/>
    </vehicle>
    <vehicle id="5.13" type="CarA" depart="278.44" color="yellow">
        <route edges="3 6"/>
    </vehicle>
    <vehicle id="3.51" type="CarA" depart="278.64" color="red">
        <route edges="3 2"/>
    </vehicle>
    <vehicle id="6.22" type="CarA" depart="278.73" color="red">
        <route edges="5 8"/>
    </vehicle>
    <vehicle id="2.23" type="CarA" depart="280.53" color="yellow">
        <route edges="1 8"/>
    </vehicle>
    <vehicle id="6.23" type="CarA" depart="280.71" color="red">
        <route edges="5 8"/>
    </vehicle>
    <vehicle id="0.46" type="CarA" depart="282.70" color="red">
        <route edges="1 4"/>
    </vehicle>
    <vehicle id="5.14" type="CarA" depart="284.18" color="yellow">
        <route edges="3 6"/>
    </vehicle>
    <vehicle id="9.30" type="CarA" depart="284.35" color="red">
        <route edges="7 6"/>
    </vehicle>
    <vehicle id="8.18" type="CarA" depart="284.68" color="yellow">
        <route edges="5 2"/>
    </vehicle>
    <vehicle id="5.15" type="CarA" depart="288.94" color="yellow">
        <route edges="3 6"/>
    </vehicle>
    <vehicle id="0.47" type="CarA" depart="289.45" color="red">
        <route edges="1 4"/>
    </vehicle>
    <vehicle id="9.31" type="CarA" depart="289.53" color="red">
        <route edges="7 6"/>
    </vehicle>
    <vehicle id="6.24" type="CarA" depart="291.60" color="red">
        <route edges="5 8"/>
    </vehicle>
    <vehicle id="0.48" type="CarA" depart="292.21" color="red">
        <route edges="1 4"/>
    </vehicle>