<flows>
	<vType accel="3.0" decel="6.0" id="CarA" length="5.0" minGap="2.5" maxSpeed="50.0" sigma="0.5" /> <!--car -->
	<vType accel="2.0" decel="6.0" id="CarB" length="10.0" minGap="2.5" maxSpeed="30.0" sigma="0.5" /> <!--truck-->
	
    <flow id="0" from="3" to="2" begin="0" end="299" number="5" type="CarA" departLane="best" departSpeed="max" color="1,0,0"/>
	<flow id="1" from="7" to="4" begin="0" end="299" number="1" type="CarA" departLane="best" departSpeed="max" color="1,0,1"/>
	<flow id="2" from="7" to="8" begin="0" end="299" number="1" type="CarA" departLane="best" departSpeed="max" color="1,0,0"/>
	<flow id="3" from="7" to="6" begin="0" end="299" number="2" type="CarB" departLane="best" departSpeed="max" color="1,0,1"/>
	<flow id="4" from="7" to="6" begin="0" end="299" number="8" type="CarA" departLane="best" departSpeed="max" color="1,0,0"/>
	<flow id="5" from="1" to="6" begin="0" end="299" number="1" type="CarA" departLane="best" departSpeed="max" color="1,0,1"/>
	<flow id="6" from="5" to="8" begin="0" end="299" number="1" type="CarA" departLane="best" departSpeed="max" color="1,0,0"/>
	<flow id="7" from="5" to="8" begin="0" end="299" number="1" type="CarB" departLane="best" departSpeed="max" color="1,0,1"/>
	
	<flow id="8" from="3" to="8" begin="300" end="599" number="7" type="CarA" departLane="best" departSpeed="max" color="1,0,0"/>
	<flow id="9" from="7" to="4" begin="300" end="599" number="4" type="CarA" departLane="best" departSpeed="max" color="1,0,1"/>
	<flow id="10" from="7" to="2" begin="300" end="599" number="1" type="CarA" departLane="best" departSpeed="max" color="1,0,0"/>
	<flow id="11" from="7" to="6" begin="300" end="599" number="8" type="CarB" departLane="best" departSpeed="max" color="1,0,1"/>
	<flow id="12" from="7" to="6" begin="300" end="599" number="6" type="CarA" departLane="best" departSpeed="max" color="1,0,0"/>
	<flow id="13" from="5" to="4" begin="300" end="599" number="1" type="CarB" departLane="best" departSpeed="max" color="1,0,1"/>
	<flow id="14" from="5" to="8" begin="300" end="599" number="3" type="CarA" departLane="best" departSpeed="max" color="1,0,0"/>
	<flow id="15" from="5" to="8" begin="300" end="599" number="3" type="CarB" departLane="best" departSpeed="max" color="1,0,1"/>
	
	<flow id="16" from="3" to="8" begin="600" end="899" number="2" type="CarA" departLane="best" departSpeed="max" color="1,0,0"/>
	<flow id="17" from="3" to="2" begin="600" end="899" number="1" type="CarA" departLane="best" departSpeed="max" color="1,0,1"/>
	<flow id="18" from="7" to="4" begin="600" end="899" number="1" type="CarA" departLane="best" departSpeed="max" color="1,0,0"/>
	<flow id="19" from="7" to="6" begin="600" end="899" number="2" type="CarB" departLane="best" departSpeed="max" color="1,0,1"/>
	<flow id="20" from="7" to="6" begin="600" end="899" number="12" type="CarA" departLane="best" departSpeed="max" color="1,0,0"/>
	<flow id="21" from="1" to="6" begin="600" end="899" number="1" type="CarA" departLane="best" departSpeed="max" color="1,0,1"/>
	<flow id="22" from="5" to="8" begin="600" end="899" number="2" type="CarA" departLane="best" departSpeed="max" color="1,0,0"/>
	<flow id="23" from="5" to="8" begin="600" end="899" number="2" type="CarB" departLane="best" departSpeed="max" color="1,0,1"/>
	
	<flow id="24" from="3" to="8" begin="900" end="1199" number="3" type="CarA" departLane="best" departSpeed="max" color="1,0,0"/>
	<flow id="25" from="7" to="4" begin="900" end="1199" number="5" type="CarA" departLane="best" departSpeed="max" color="1,0,1"/>
	<flow id="26" from="7" to="2" begin="900" end="1199" number="1" type="CarA" departLane="best" departSpeed="max" color="1,0,0"/>
	<flow id="27" from="7" to="6" begin="900" end="1199" number="5" type="CarB" departLane="best" departSpeed="max" color="1,0,1"/>
	<flow id="28" from="7" to="6" begin="900" end="1199" number="4" type="CarA" departLane="best" departSpeed="max" color="1,0,0"/>
	<flow id="29" from="5" to="4" begin="900" end="1199" number="2" type="CarA" departLane="best" departSpeed="max" color="1,0,1"/>
	<flow id="30" from="5" to="2" begin="900" end="1199" number="3" type="CarA" departLane="best" departSpeed="max" color="1,0,0"/>
	<flow id="31" from="5" to="8" begin="900" end="1199" number="1" type="CarB" departLane="best" departSpeed="max" color="1,0,1"/>
	
	<flow id="32" from="3" to="8" begin="1200" end="1499" number="1" type="CarA" departLane="best" departSpeed="max" color="1,0,0"/>
	<flow id="33" from="3" to="8" begin="1200" end="1399" number="1" type="CarB" departLane="best" departSpeed="max" color="1,0,1"/>
	<flow id="34" from="3" to="2" begin="1200" end="1499" number="1" type="CarA" departLane="best" departSpeed="max" color="1,0,0"/>
	<flow id="35" from="3" to="6" begin="1200" end="1499" number="3" type="CarA" departLane="best" departSpeed="max" color="1,0,1"/>
	<flow id="36" from="7" to="4" begin="1200" end="1499" number="3" type="CarA" departLane="best" departSpeed="max" color="1,0,0"/>
	<flow id="37" from="7" to="6" begin="1200" end="1499" number="5" type="CarA" departLane="best" departSpeed="max" color="1,0,1"/>
	<flow id="38" from="7" to="6" begin="1200" end="1499" number="5" type="CarB" departLane="best" departSpeed="max" color="1,0,0"/>
	<flow id="39" from="1" to="4" begin="1200" end="1499" number="4" type="CarA" departLane="best" departSpeed="max" color="1,0,1"/>
	<flow id="40" from="1" to="2" begin="1200" end="1499" number="1" type="CarA" departLane="best" departSpeed="max" color="1,0,1"/>
	
	<flow id="41" from="3" to="8" begin="1500" end="1799" number="2" type="CarA" departLane="best" departSpeed="max" color="1,0,0"/>
	<flow id="42" from="3" to="8" begin="1500" end="1799" number="1" type="CarB" departLane="best" departSpeed="max" color="1,0,1"/>
	<flow id="43" from="7" to="4" begin="1500" end="1799" number="2" type="CarA" departLane="best" departSpeed="max" color="1,0,0"/>
	<flow id="44" from="7" to="2" begin="1500" end="1799" number="7" type="CarA" departLane="best" departSpeed="max" color="1,0,1"/>
	<flow id="45" from="7" to="6" begin="1500" end="1799" number="4" type="CarA" departLane="best" departSpeed="max" color="1,0,0"/>
	<flow id="46" from="7" to="6" begin="1500" end="1799" number="6" type="CarB" departLane="best" departSpeed="max" color="1,0,1"/>
	<flow id="47" from="1" to="4" begin="1500" end="1799" number="3" type="CarA" departLane="best" departSpeed="max" color="1,0,0"/>
	<flow id="48" from="5" to="8" begin="1500" end="1799" number="3" type="CarA" departLane="best" departSpeed="max" color="1,0,1"/>
	
	<flow id="49" from="3" to="8" begin="1800" end="2099" number="6" type="CarA" departLane="best" departSpeed="max" color="1,0,0"/>
	<flow id="50" from="7" to="6" begin="1800" end="2099" number="2" type="CarA" departLane="best" departSpeed="max" color="1,0,1"/>
	<flow id="51" from="1" to="4" begin="1800" end="2099" number="2" type="CarA" departLane="best" departSpeed="max" color="1,0,0"/>
	<flow id="52" from="5" to="8" begin="1800" end="2099" number="3" type="CarB" departLane="best" departSpeed="max" color="1,0,1"/>
	<flow id="53" from="5" to="8" begin="1800" end="2099" number="7" type="CarA" departLane="best" departSpeed="max" color="1,0,0"/>
	
	<flow id="54" from="3" to="8" begin="2100" end="2399" number="2" type="CarA" departLane="best" departSpeed="max" color="1,0,0"/>
	<flow id="55" from="7" to="4" begin="2100" end="2399" number="2" type="CarA" departLane="best" departSpeed="max" color="1,0,1"/>
	<flow id="56" from="7" to="4" begin="2100" end="2399" number="2" type="CarB" departLane="best" departSpeed="max" color="1,0,0"/>
	<flow id="57" from="7" to="6" begin="2100" end="2399" number="1" type="CarA" departLane="best" departSpeed="max" color="1,0,1"/>
	<flow id="58" from="1" to="4" begin="2100" end="2399" number="1" type="CarA" departLane="best" departSpeed="max" color="1,0,0"/>
	<flow id="59" from="5" to="8" begin="2100" end="2399" number="2" type="CarA" departLane="best" departSpeed="max" color="1,0,1"/>
	<flow id="60" from="5" to="8" begin="2100" end="2399" number="2" type="CarB" departLane="best" departSpeed="max" color="1,0,0"/>

	<flow id="61" from="3" to="4" begin="2400" end="2699" number="1" type="CarA" departLane="best" departSpeed="max" color="1,0,0"/>
	<flow id="62" from="7" to="4" begin="2400" end="2699" number="2" type="CarA" departLane="best" departSpeed="max" color="1,0,1"/>
	<flow id="63" from="7" to="8" begin="2400" end="2699" number="1" type="CarA" departLane="best" departSpeed="max" color="1,0,0"/>
	<flow id="64" from="7" to="8" begin="2400" end="2699" number="2" type="CarB" departLane="best" departSpeed="max" color="1,0,1"/>
	<flow id="65" from="7" to="6" begin="2400" end="2699" number="7" type="CarA" departLane="best" departSpeed="max" color="1,0,0"/>
	<flow id="66" from="7" to="6" begin="2400" end="2699" number="3" type="CarB" departLane="best" departSpeed="max" color="1,0,1"/>
	<flow id="67" from="1" to="6" begin="2400" end="2699" number="3" type="CarA" departLane="best" departSpeed="max" color="1,0,0"/>
	<flow id="68" from="5" to="8" begin="2400" end="2699" number="1" type="CarB" departLane="best" departSpeed="max" color="1,0,1"/>
	
	<flow id="69" from="3" to="8" begin="2700" end="2999" number="2" type="CarA" departLane="best" departSpeed="max" color="1,0,0"/>
	<flow id="70" from="7" to="4" begin="2700" end="2999" number="1" type="CarA" departLane="best" departSpeed="max" color="1,0,1"/>
	<flow id="71" from="7" to="4" begin="2700" end="2999" number="2" type="CarB" departLane="best" departSpeed="max" color="1,0,0"/>
	<flow id="72" from="7" to="6" begin="2700" end="2999" number="1" type="CarB" departLane="best" departSpeed="max" color="1,0,1"/>
	<flow id="73" from="7" to="6" begin="2700" end="2999" number="8" type="CarA" departLane="best" departSpeed="max" color="1,0,0"/>
	<flow id="74" from="1" to="8" begin="2700" end="2999" number="2" type="CarA" departLane="best" departSpeed="max" color="1,0,1"/>
	<flow id="75" from="1" to="2" begin="2700" end="2999" number="1" type="CarA" departLane="best" departSpeed="max" color="1,0,0"/>
	<flow id="76" from="1" to="6" begin="2700" end="2999" number="2" type="CarA" departLane="best" departSpeed="max" color="1,0,1"/>
	<flow id="77" from="5" to="8" begin="2700" end="2999" number="3" type="CarA" departLane="best" departSpeed="max" color="1,0,1"/>
	
	<flow id="78" from="7" to="4" begin="3000" end="3299" number="1" type="CarA" departLane="best" departSpeed="max" color="1,0,0"/>
	<flow id="79" from="7" to="6" begin="3000" end="3299" number="9" type="CarA" departLane="best" departSpeed="max" color="1,0,1"/>
	<flow id="80" from="7" to="6" begin="3000" end="3299" number="2" type="CarB" departLane="best" departSpeed="max" color="1,0,0"/>
	<flow id="81" from="1" to="4" begin="3000" end="3299" number="4" type="CarA" departLane="best" departSpeed="max" color="1,0,1"/>
	<flow id="82" from="5" to="4" begin="3000" end="3299" number="2" type="CarA" departLane="best" departSpeed="max" color="1,0,0"/>
	<flow id="83" from="5" to="8" begin="3000" end="3299" number="2" type="CarA" departLane="best" departSpeed="max" color="1,0,1"/>
		
	<flow id="84" from="3" to="8" begin="3300" end="3599" number="2" type="CarA" departLane="best" departSpeed="max" color="1,0,0"/>
	<flow id="85" from="7" to="4" begin="3300" end="3599" number="2" type="CarA" departLane="best" departSpeed="max" color="1,0,1"/>
	<flow id="86" from="7" to="6" begin="3300" end="3599" number="5" type="CarA" departLane="best" departSpeed="max" color="1,0,0"/>
	<flow id="87" from="5" to="8" begin="3300" end="3599" number="1" type="CarB" departLane="best" departSpeed="max" color="1,0,1"/>
	<flow id="88" from="5" to="8" begin="3300" end="3599" number="3" type="CarA" departLane="best" departSpeed="max" color="1,0,0"/>
	<flow id="89" from="5" to="2" begin="3300" end="3599" number="1" type="CarA" departLane="best" departSpeed="max" color="1,0,1"/>
	
	<!-- 0:59:59 -->

	<flow id="90" from="3" to="8" begin="3600" end="3899" number="2" type="CarA" departLane="best" departSpeed="max" color="1,0,0"/>
	<flow id="91" from="3" to="8" begin="3600" end="3899" number="1" type="CarB" departLane="best" departSpeed="max" color="1,0,1"/>
	<flow id="92" from="7" to="4" begin="3600" end="3899" number="2" type="CarA" departLane="best" departSpeed="max" color="1,0,0"/>
	<flow id="93" from="7" to="4" begin="3600" end="3899" number="1" type="CarB" departLane="best" departSpeed="max" color="1,0,1"/>
	<flow id="94" from="7" to="2" begin="3600" end="3899" number="2" type="CarA" departLane="best" departSpeed="max" color="1,0,0"/>
	<flow id="95" from="7" to="6" begin="3600" end="3899" number="5" type="CarA" departLane="best" departSpeed="max" color="1,0,1"/>
	<flow id="96" from="7" to="6" begin="3600" end="3899" number="3" type="CarB" departLane="best" departSpeed="max" color="1,0,0"/>
	<flow id="97" from="5" to="4" begin="3600" end="3899" number="1" type="CarA" departLane="best" departSpeed="max" color="1,0,1"/>
	<flow id="98" from="5" to="4" begin="3600" end="3899" number="1" type="CarB" departLane="best" departSpeed="max" color="1,0,1"/>
	<flow id="99" from="5" to="8" begin="3600" end="3899" number="2" type="CarA" departLane="best" departSpeed="max" color="1,0,1"/>
	<flow id="100" from="5" to="8" begin="3600" end="3899" number="1" type="CarB" departLane="best" departSpeed="max" color="1,0,1"/>
	
	<flow id="101" from="3" to="8" begin="3900" end="4199" number="5" type="CarA" departLane="best" departSpeed="max" color="1,0,0"/>
	<flow id="102" from="7" to="4" begin="3900" end="4199" number="1" type="CarA" departLane="best" departSpeed="max" color="1,0,1"/>
	<flow id="103" from="7" to="6" begin="3900" end="4199" number="4" type="CarA" departLane="best" departSpeed="max" color="1,0,0"/>
	<flow id="104" from="7" to="6" begin="3900" end="4199" number="2" type="CarB" departLane="best" departSpeed="max" color="1,0,1"/>
	<flow id="105" from="1" to="4" begin="3900" end="4199" number="1" type="CarA" departLane="best" departSpeed="max" color="1,0,0"/>
	<flow id="106" from="1" to="8" begin="3900" end="4199" number="2" type="CarA" departLane="best" departSpeed="max" color="1,0,1"/>
	<flow id="107" from="5" to="8" begin="3900" end="4199" number="2" type="CarA" departLane="best" departSpeed="max" color="1,0,0"/>
	<flow id="108" from="5" to="2" begin="3900" end="4199" number="2" type="CarA" departLane="best" departSpeed="max" color="1,0,1"/>
	
	<flow id="109" from="7" to="4" begin="4200" end="4499" number="1" type="CarB" departLane="best" departSpeed="max" color="1,0,0"/>
	<flow id="110" from="7" to="2" begin="4200" end="4499" number="1" type="CarA" departLane="best" departSpeed="max" color="1,0,1"/>
	<flow id="111" from="7" to="6" begin="4200" end="4499" number="4" type="CarA" departLane="best" departSpeed="max" color="1,0,0"/>
	<flow id="112" from="7" to="6" begin="4200" end="4499" number="2" type="CarB" departLane="best" departSpeed="max" color="1,0,1"/>
	<flow id="113" from="5" to="8" begin="4200" end="4499" number="1" type="CarB" departLane="best" departSpeed="max" color="1,0,0"/>
	
	<flow id="114" from="3" to="8" begin="4500" end="4799" number="3" type="CarA" departLane="best" departSpeed="max" color="1,0,1"/>
	<flow id="115" from="7" to="4" begin="4500" end="4799" number="1" type="CarA" departLane="best" departSpeed="max" color="1,0,0"/>
	<flow id="116" from="7" to="4" begin="4500" end="4799" number="1" type="CarB" departLane="best" departSpeed="max" color="1,0,1"/>
	<flow id="117" from="7" to="2" begin="4500" end="4799" number="1" type="CarA" departLane="best" departSpeed="max" color="1,0,1"/>
	<flow id="118" from="5" to="8" begin="4500" end="4799" number="1" type="CarA" departLane="best" departSpeed="max" color="1,0,0"/>
	
	<flow id="119" from="7" to="4" begin="4800" end="5099" number="1" type="CarA" departLane="best" departSpeed="max" color="1,0,0"/>
	<flow id="120" from="7" to="2" begin="4800" end="5099" number="1" type="CarA" departLane="best" departSpeed="max" color="1,0,1"/>
	<flow id="121" from="7" to="6" begin="4800" end="5099" number="3" type="CarA" departLane="best" departSpeed="max" color="1,0,0"/>
	<flow id="122" from="7" to="6" begin="4800" end="5099" number="2" type="CarB" departLane="best" departSpeed="max" color="1,0,1"/>
	<flow id="123" from="5" to="8" begin="4800" end="5099" number="2" type="CarA" departLane="best" departSpeed="max" color="1,0,0"/>
	
	<flow id="124" from="3" to="8" begin="5100" end="5399" number="4" type="CarA" departLane="best" departSpeed="max" color="1,0,0"/>
	<flow id="125" from="7" to="6" begin="5100" end="5399" number="1" type="CarA" departLane="best" departSpeed="max" color="1,0,1"/>
	<flow id="126" from="7" to="6" begin="5100" end="5399" number="1" type="CarB" departLane="best" departSpeed="max" color="1,0,0"/>
	<flow id="127" from="5" to="4" begin="5100" end="5399" number="1" type="CarB" departLane="best" departSpeed="max" color="1,0,1"/>
	<flow id="128" from="5" to="8" begin="5100" end="5399" number="1" type="CarA" departLane="best" departSpeed="max" color="1,0,0"/>
	<flow id="129" from="5" to="8" begin="5100" end="5399" number="1" type="CarB" departLane="best" departSpeed="max" color="1,0,1"/>
	
	<!--1:29:59 -->
	
	<flow id="130" from="5" to="8" begin="5400" end="5699" number="4" type="CarA" departLane="best" departSpeed="max" color="1,0,0"/>
	<flow id="131" from="7" to="6" begin="5400" end="5699" number="4" type="CarA" departLane="best" departSpeed="max" color="1,0,1"/>
	<flow id="132" from="7" to="4" begin="5400" end="5699" number="1" type="CarB" departLane="best" departSpeed="max" color="1,0,0"/>
	
	
	<flow id="133" from="7" to="6" begin="5700" end="5999" number="1" type="CarB" departLane="best" departSpeed="max" color="1,0,1"/>
	<flow id="134" from="7" to="6" begin="5700" end="5999" number="4" type="CarA" departLane="best" departSpeed="max" color="1,0,0"/>
	<flow id="135" from="5" to="8" begin="5700" end="5999" number="1" type="CarA" departLane="best" departSpeed="max" color="1,0,1"/>
	
	<flow id="136" from="7" to="6" begin="6000" end="6299" number="3" type="CarA" departLane="best" departSpeed="max" color="1,0,1"/>
	
	<flow id="137" from="7" to="4" begin="6300" end="6599" number="3" type="CarA" departLane="best" departSpeed="max" color="1,0,0"/>
	<flow id="138" from="7" to="8" begin="6300" end="6599" number="1" type="CarA" departLane="best" departSpeed="max" color="1,0,1"/>
	<flow id="139" from="7" to="6" begin="6300" end="6599" number="2" type="CarB" departLane="best" departSpeed="max" color="1,0,1"/>
	<flow id="140" from="7" to="6" begin="6300" end="6599" number="2" type="CarA" departLane="best" departSpeed="max" color="1,0,0"/>
	<flow id="141" from="1" to="8" begin="6300" end="6599" number="1" type="CarA" departLane="best" departSpeed="max" color="1,0,1"/>
	<flow id="142" from="5" to="8" begin="6300" end="6599" number="4" type="CarA" departLane="best" departSpeed="max" color="1,0,1"/>
	
	<flow id="143" from="7" to="6" begin="6600" end="6899" number="1" type="CarA" departLane="best" departSpeed="max" color="1,0,0"/>
	<flow id="144" from="5" to="8" begin="6600" end="6899" number="2" type="CarB" departLane="best" departSpeed="max" color="1,0,1"/>
	
	<flow id="145" from="7" to="4" begin="6900" end="7199" number="1" type="CarB" departLane="best" departSpeed="max" color="1,0,1"/>
	<flow id="146" from="7" to="4" begin="6900" end="7199" number="1" type="CarA" departLane="best" departSpeed="max" color="1,0,0"/>
	<flow id="147" from="5" to="8" begin="6900" end="7199" number="1" type="CarA" departLane="best" departSpeed="max" color="1,0,1"/>
	<flow id="148" from="5" to="8" begin="6900" end="7199" number="1" type="CarB" departLane="best" departSpeed="max" color="1,0,1"/>
	
	<!--1:59:59 -->
	
	<flow id="149" from="1" to="6" begin="7200" end="7499" number="1" type="CarA" departLane="best" departSpeed="max" color="1,0,0"/>
	<flow id="150" from="7" to="6" begin="7200" end="7499" number="1" type="CarA" departLane="best" departSpeed="max" color="1,0,1"/>
	
	<flow id="151" from="3" to="8" begin="7500" end="7799" number="2" type="CarA" departLane="best" departSpeed="max" color="1,0,0"/>
	<flow id="152" from="7" to="6" begin="7500" end="7799" number="7" type="CarA" departLane="best" departSpeed="max" color="1,0,1"/>
	<flow id="153" from="7" to="6" begin="7500" end="7799" number="2" type="CarB" departLane="best" departSpeed="max" color="1,0,0"/>
	
	<flow id="154" from="3" to="8" begin="7800" end="8099" number="2" type="CarA" departLane="best" departSpeed="max" color="1,0,0"/>
	<flow id="155" from="3" to="2" begin="7800" end="8099" number="2" type="CarA" departLane="best" departSpeed="max" color="1,0,1"/>
	<flow id="156" from="7" to="4" begin="7800" end="8099" number="1" type="CarA" departLane="best" departSpeed="max" color="1,0,0"/>
	<flow id="157" from="7" to="6" begin="7800" end="8099" number="2" type="CarA" departLane="best" departSpeed="max" color="1,0,1"/>
	<flow id="158" from="5" to="8" begin="7800" end="8099" number="1" type="CarA" departLane="best" departSpeed="max" color="1,0,1"/>
	
	<flow id="159" from="7" to="4" begin="8100" end="8399" number="1" type="CarB" departLane="best" departSpeed="max" color="1,0,1"/>
	<flow id="160" from="7" to="6" begin="8100" end="8399" number="2" type="CarA" departLane="best" departSpeed="max" color="1,0,1"/>
	
	<flow id="161" from="7" to="6" begin="8400" end="8699" number="2" type="CarA" departLane="best" departSpeed="max" color="1,0,1"/>
	<flow id="162" from="7" to="6" begin="8400" end="8699" number="2" type="CarB" departLane="best" departSpeed="max" color="1,0,1"/>
	<flow id="163" from="5" to="8" begin="8400" end="8699" number="1" type="CarB" departLane="best" departSpeed="max" color="1,0,1"/>
	
	<flow id="164" from="7" to="6" begin="8700" end="8999" number="3" type="CarA" departLane="best" departSpeed="max" color="1,0,1"/>
	<flow id="165" from="7" to="6" begin="8700" end="8999" number="1" type="CarB" departLane="best" departSpeed="max" color="1,0,1"/>
	<flow id="166" from="1" to="8" begin="8700" end="8999" number="2" type="CarA" departLane="best" departSpeed="max" color="1,0,1"/>
	
	<!--2:29:59 -->
	
	<flow id="167" from="7" to="6" begin="9000" end="9299" number="1" type="CarA" departLane="best" departSpeed="max" color="1,0,1"/>
	
	<flow id="168" from="7" to="4" begin="9300" end="9599" number="2" type="CarA" departLane="best" departSpeed="max" color="1,0,1"/>
	<flow id="169" from="7" to="6" begin="9300" end="9599" number="1" type="CarA" departLane="best" departSpeed="max" color="1,0,1"/>
	<flow id="170" from="7" to="6" begin="9300" end="9599" number="1" type="CarB" departLane="best" departSpeed="max" color="1,0,1"/>
	
	<flow id="171" from="7" to="6" begin="9600" end="9899" number="6" type="CarA" departLane="best" departSpeed="max" color="1,0,1"/>
	<flow id="172" from="5" to="8" begin="9600" end="9899" number="1" type="CarA" departLane="best" departSpeed="max" color="1,0,1"/>
	
	<flow id="173" from="7" to="6" begin="9900" end="10199" number="3" type="CarA" departLane="best" departSpeed="max" color="1,0,1"/>
	<flow id="174" from="7" to="4" begin="9900" end="10199" number="2" type="CarB" departLane="best" departSpeed="max" color="1,0,1"/>
	<flow id="175" from="5" to="8" begin="9900" end="10199" number="3" type="CarA" departLane="best" departSpeed="max" color="1,0,1"/>
	
	<flow id="176" from="7" to="8" begin="10500" end="10799" number="1" type="CarA" departLane="best" departSpeed="max" color="1,0,1"/>
	<flow id="177" from="5" to="8" begin="10500" end="10799" number="1" type="CarB" departLane="best" departSpeed="max" color="1,0,1"/>
	
	<flow id="178" from="7" to="4" begin="10800" end="11099" number="2" type="CarA" departLane="best" departSpeed="max" color="1,0,1"/>
	<flow id="179" from="7" to="6" begin="10800" end="11099" number="2" type="CarA" departLane="best" departSpeed="max" color="1,0,1"/>
	<flow id="180" from="5" to="8" begin="10800" end="11099" number="3" type="CarA" departLane="best" departSpeed="max" color="1,0,1"/>
	<flow id="181" from="5" to="2" begin="10800" end="11099" number="1" type="CarA" departLane="best" departSpeed="max" color="1,0,1"/>
	
	<flow id="182" from="7" to="8" begin="11100" end="11399" number="1" type="CarA" departLane="best" departSpeed="max" color="1,0,1"/>
	<flow id="183" from="7" to="6" begin="11100" end="11399" number="1" type="CarA" departLane="best" departSpeed="max" color="1,0,1"/>
	<flow id="184" from="7" to="6" begin="11100" end="11399" number="1" type="CarB" departLane="best" departSpeed="max" color="1,0,1"/>
	<flow id="185" from="1" to="8" begin="11100" end="11399" number="2" type="CarA" departLane="best" departSpeed="max" color="1,0,1"/>
	
	<flow id="186" from="7" to="4" begin="11400" end="11699" number="1" type="CarA" departLane="best" departSpeed="max" color="1,0,1"/>
	<flow id="187" from="7" to="6" begin="11400" end="11699" number="1" type="CarB" departLane="best" departSpeed="max" color="1,0,1"/>
	<flow id="188" from="7" to="6" begin="11400" end="11699" number="1" type="CarA" departLane="best" departSpeed="max" color="1,0,1"/>
	<flow id="189" from="5" to="8" begin="11400" end="11699" number="1" type="CarB" departLane="best" departSpeed="max" color="1,0,1"/>
	<flow id="190" from="5" to="8" begin="11400" end="11699" number="4" type="CarA" departLane="best" departSpeed="max" color="1,0,1"/>
	
	<flow id="191" from="7" to="6" begin="11700" end="11999" number="3" type="CarA" departLane="best" departSpeed="max" color="1,0,1"/>
	
	<flow id="192" from="5" to="8" begin="12000" end="12299" number="2" type="CarA" departLane="best" departSpeed="max" color="1,0,1"/>
	<flow id="193" from="5" to="8" begin="12000" end="12299" number="1" type="CarB" departLane="best" departSpeed="max" color="1,0,1"/>
	
	<flow id="194" from="7" to="6" begin="12300" end="12599" number="2" type="CarA" departLane="best" departSpeed="max" color="1,0,1"/>
	<flow id="195" from="7" to="6" begin="12300" end="12599" number="2" type="CarB" departLane="best" departSpeed="max" color="1,0,1"/>
	<flow id="196" from="5" to="8" begin="12300" end="12599" number="2" type="CarB" departLane="best" departSpeed="max" color="1,0,1"/>
	
	<flow id="197" from="5" to="8" begin="12900" end="13199" number="1" type="CarA" departLane="best" departSpeed="max" color="1,0,1"/>

	<flow id="198" from="7" to="4" begin="13200" end="13499" number="2" type="CarA" departLane="best" departSpeed="max" color="1,0,1"/>
	
	<flow id="199" from="7" to="6" begin="13500" end="13799" number="1" type="CarA" departLane="best" departSpeed="max" color="1,0,1"/>
	<flow id="200" from="7" to="6" begin="13500" end="13799" number="1" type="CarB" departLane="best" departSpeed="max" color="1,0,1"/>
	
	<flow id="201" from="3" to="8" begin="13800" end="14099" number="3" type="CarA" departLane="best" departSpeed="max" color="1,0,1"/>
	<flow id="203" from="5" to="8" begin="13800" end="14099" number="1" type="CarB" departLane="best" departSpeed="max" color="1,0,1"/>
	
	<flow id="204" from="3" to="8" begin="14100" end="14399" number="1" type="CarA" departLane="best" departSpeed="max" color="1,0,1"/>
	<flow id="205" from="7" to="6" begin="14100" end="14399" number="2" type="CarB" departLane="best" departSpeed="max" color="1,0,1"/>
	<flow id="206" from="7" to="6" begin="14100" end="14399" number="1" type="CarA" departLane="best" departSpeed="max" color="1,0,1"/>
	<flow id="207" from="5" to="2" begin="14100" end="14399" number="1" type="CarB" departLane="best" departSpeed="max" color="1,0,1"/>
	<flow id="208" from="5" to="4" begin="14100" end="14399" number="2" type="CarA" departLane="best" departSpeed="max" color="1,0,1"/>
	<flow id="209" from="5" to="8" begin="14100" end="14399" number="1" type="CarA" departLane="best" departSpeed="max" color="1,0,1"/>
	
	 <!--3:59:59 -->
	 
	<flow id="210" from="7" to="4" begin="14400" end="14699" number="2" type="CarA" departLane="best" departSpeed="max" color="1,0,1"/>
	<flow id="211" from="7" to="6" begin="14400" end="14699" number="1" type="CarA" departLane="best" departSpeed="max" color="1,0,1"/>
	<flow id="212" from="5" to="8" begin="14400" end="14699" number="1" type="CarA" departLane="best" departSpeed="max" color="1,0,1"/>
	<flow id="213" from="5" to="8" begin="14400" end="14699" number="1" type="CarB" departLane="best" departSpeed="max" color="1,0,1"/>

	<flow id="214" from="7" to="2" begin="14700" end="14999" number="2" type="CarA" departLane="best" departSpeed="max" color="1,0,1"/>
	<flow id="215" from="5" to="8" begin="14700" end="14999" number="1" type="CarB" departLane="best" departSpeed="max" color="1,0,1"/>

	<flow id="216" from="5" to="8" begin="15000" end="15299" number="1" type="CarA" departLane="best" departSpeed="max" color="1,0,1"/>
	
	<flow id="217" from="3" to="8" begin="15300" end="15599" number="2" type="CarA" departLane="best" departSpeed="max" color="1,0,1"/>
	<flow id="218" from="5" to="8" begin="15300" end="15599" number="1" type="CarB" departLane="best" departSpeed="max" color="1,0,1"/>
	
	<flow id="219" from="7" to="6" begin="15600" end="15899" number="3" type="CarA" departLane="best" departSpeed="max" color="1,0,1"/>  	
	<flow id="220" from="5" to="8" begin="15600" end="15899" number="1" type="CarB" departLane="best" departSpeed="max" color="1,0,1"/>
	
	<flow id="221" from="7" to="4" begin="15900" end="16199" number="1" type="CarA" departLane="best" departSpeed="max" color="1,0,1"/>  	
	<flow id="222" from="7" to="4" begin="15900" end="16199" number="1" type="CarB" departLane="best" departSpeed="max" color="1,0,1"/>
	 	
	<flow id="223" from="7" to="4" begin="16200" end="16499" number="1" type="CarB" departLane="best" departSpeed="max" color="1,0,1"/>
	