<?xml version="1.0" encoding="UTF-8" standalone="yes"?>
<flows>
	<vType accel="3.0" decel="6.0" id="carA" length="5.0" minGap="2.5" maxSpeed="50.0" sigma="0.5" /> <!--car -->
	<vType accel="2.0" decel="6.0" id="carB" length="10.0" minGap="2.5" maxSpeed="30.0" sigma="0.5" /> <!--truck-->
	
	<flow id="1" from="1" to="11" begin="0" end="299" number="0" type="carB" color="1,0,0"/>
	<flow id="2" from="1" to="11" begin="0" end="299" number="0" type="carA" color="1,0,1"/>
	<flow id="3" from="1" to="22" begin="0" end="299" number="0" type="carB" color="1,0,0"/>
	<flow id="4" from="1" to="22" begin="0" end="299" number="0" type="carA" color="1,0,1"/>
	<flow id="5" from="1" to="33" begin="0" end="299" number="1" type="carB" color="1,0,0"/>
	<flow id="6" from="1" to="33" begin="0" end="299" number="1" type="carA" color="1,0,1"/>
	<flow id="7" from="1" to="44" begin="0" end="299" number="1" type="carB" color="1,0,0"/>
	<flow id="8" from="1" to="44" begin="0" end="299" number="2" type="carA" color="1,0,1"/>
	<flow id="9" from="1" to="55" begin="0" end="299" number="0" type="carB" color="1,0,0"/>
	<flow id="10" from="1" to="55" begin="0" end="299" number="0" type="carA" color="1,0,1"/>
	<flow id="11" from="2" to="11" begin="0" end="299" number="0" type="carB" color="1,0,0"/>
	<flow id="12" from="2" to="11" begin="0" end="299" number="0" type="carA" color="1,0,1"/>
	<flow id="13" from="2" to="22" begin="0" end="299" number="0" type="carB" color="1,0,0"/>
	<flow id="14" from="2" to="22" begin="0" end="299" number="0" type="carA" color="1,0,1"/>
	<flow id="15" from="2" to="33" begin="0" end="299" number="0" type="carB" color="1,0,0"/>
	<flow id="16" from="2" to="33" begin="0" end="299" number="0" type="carA" color="1,0,1"/>
	<flow id="17" from="2" to="44" begin="0" end="299" number="0" type="carB" color="1,0,0"/>
	<flow id="18" from="2" to="44" begin="0" end="299" number="0" type="carA" color="1,0,1"/>
	<flow id="19" from="2" to="55" begin="0" end="299" number="0" type="carB" color="1,0,0"/>
	<flow id="20" from="2" to="55" begin="0" end="299" number="0" type="carA" color="1,0,1"/>
	<flow id="21" from="3" to="11" begin="0" end="299" number="0" type="carB" color="1,0,0"/>
	<flow id="22" from="3" to="11" begin="0" end="299" number="0" type="carA" color="1,0,1"/>
	<flow id="23" from="3" to="22" begin="0" end="299" number="0" type="carB" color="1,0,0"/>
	<flow id="24" from="3" to="22" begin="0" end="299" number="0" type="carA" color="1,0,1"/>
	<flow id="25" from="3" to="33" begin="0" end="299" number="0" type="carB" color="1,0,0"/>
	<flow id="26" from="3" to="33" begin="0" end="299" number="0" type="carA" color="1,0,1"/>
	<flow id="27" from="3" to="44" begin="0" end="299" number="0" type="carB" color="1,0,0"/>
	<flow id="28" from="3" to="44" begin="0" end="299" number="0" type="carA" color="1,0,1"/>
	<flow id="29" from="3" to="55" begin="0" end="299" number="1" type="carB" color="1,0,0"/>
	<flow id="30" from="3" to="55" begin="0" end="299" number="2" type="carA" color="1,0,1"/>
	<flow id="31" from="4" to="11" begin="0" end="299" number="8" type="carB" color="1,0,0"/>
	<flow id="32" from="4" to="11" begin="0" end="299" number="4" type="carA" color="1,0,1"/>
	<flow id="33" from="4" to="22" begin="0" end="299" number="0" type="carB" color="1,0,0"/>
	<flow id="34" from="4" to="22" begin="0" end="299" number="0" type="carA" color="1,0,1"/>
	<flow id="35" from="4" to="33" begin="0" end="299" number="0" type="carB" color="1,0,0"/>
	<flow id="36" from="4" to="33" begin="0" end="299" number="1" type="carA" color="1,0,1"/>
	<flow id="37" from="4" to="44" begin="0" end="299" number="0" type="carB" color="1,0,0"/>
	<flow id="38" from="4" to="44" begin="0" end="299" number="2" type="carA" color="1,0,1"/>
	<flow id="39" from="4" to="55" begin="0" end="299" number="0" type="carB" color="1,0,0"/>
	<flow id="40" from="4" to="55" begin="0" end="299" number="1" type="carA" color="1,0,1"/>
	<flow id="41" from="5" to="11" begin="0" end="299" number="2" type="carB" color="1,0,0"/>
	<flow id="42" from="5" to="11" begin="0" end="299" number="13" type="carA" color="1,0,0"/>
	<flow id="43" from="5" to="22" begin="0" end="299" number="0" type="carB" color="1,0,0"/>
	<flow id="44" from="5" to="22" begin="0" end="299" number="1" type="carA" color="1,0,0"/>
	<flow id="45" from="5" to="33" begin="0" end="299" number="2" type="carB" color="1,0,0"/>
	<flow id="46" from="5" to="33" begin="0" end="299" number="0" type="carA" color="1,0,0"/>
	<flow id="47" from="5" to="44" begin="0" end="299" number="0" type="carB" color="1,0,0"/>
	<flow id="48" from="5" to="44" begin="0" end="299" number="1" type="carA" color="1,0,0"/>
	<flow id="49" from="5" to="55" begin="0" end="299" number="0" type="carB" color="1,0,0"/>
	<flow id="50" from="5" to="55" begin="0" end="299" number="0" type="carA" color="1,0,0"/>
	<flow id="51" from="1" to="11" begin="300" end="599" number="0" type="carB" color="1,0,0"/>
	<flow id="52" from="1" to="11" begin="300" end="599" number="0" type="carA" color="1,0,0"/>
	<flow id="53" from="1" to="22" begin="300" end="599" number="0" type="carB" color="1,0,0"/>
	<flow id="54" from="1" to="22" begin="300" end="599" number="1" type="carA" color="1,0,0"/>
	<flow id="55" from="1" to="33" begin="300" end="599" number="0" type="carB" color="1,0,0"/>
	<flow id="56" from="1" to="33" begin="300" end="599" number="0" type="carA" color="1,0,1"/>
	<flow id="57" from="1" to="44" begin="300" end="599" number="0" type="carB" color="1,0,0"/>
	<flow id="58" from="1" to="44" begin="300" end="599" number="1" type="carA" color="1,0,1"/>
	<flow id="59" from="1" to="55" begin="300" end="599" number="0" type="carB" color="1,0,0"/>
	<flow id="60" from="1" to="55" begin="300" end="599" number="0" type="carA" color="1,0,1"/>
	<flow id="61" from="2" to="11" begin="300" end="599" number="0" type="carB" color="1,0,0"/>
	<flow id="62" from="2" to="11" begin="300" end="599" number="0" type="carA" color="1,0,0"/>
	<flow id="63" from="2" to="22" begin="300" end="599" number="0" type="carB" color="1,0,0"/>
	<flow id="64" from="2" to="22" begin="300" end="599" number="0" type="carA" color="1,0,0"/>
	<flow id="65" from="2" to="33" begin="300" end="599" number="0" type="carB" color="1,0,0"/>
	<flow id="66" from="2" to="33" begin="300" end="599" number="0" type="carA" color="1,0,0"/>
	<flow id="67" from="2" to="44" begin="300" end="599" number="0" type="carB" color="1,0,0"/>
	<flow id="68" from="2" to="44" begin="300" end="599" number="0" type="carA" color="1,0,0"/>
	<flow id="69" from="2" to="55" begin="300" end="599" number="0" type="carB" color="1,0,0"/>
	<flow id="70" from="2" to="55" begin="300" end="599" number="0" type="carA" color="1,0,0"/>
	<flow id="71" from="3" to="11" begin="300" end="599" number="0" type="carB" color="1,0,0"/>
	<flow id="72" from="3" to="11" begin="300" end="599" number="0" type="carA" color="1,0,0"/>
	<flow id="73" from="3" to="22" begin="300" end="599" number="0" type="carB" color="1,0,0"/>
	<flow id="74" from="3" to="22" begin="300" end="599" number="0" type="carA" color="1,0,0"/>
	<flow id="75" from="3" to="33" begin="300" end="599" number="0" type="carB" color="1,0,0"/>
	<flow id="76" from="3" to="33" begin="300" end="599" number="0" type="carA" color="1,0,0"/>
	<flow id="77" from="3" to="44" begin="300" end="599" number="0" type="carB" color="1,0,0"/>
	<flow id="78" from="3" to="44" begin="300" end="599" number="0" type="carA" color="1,0,1"/>
	<flow id="79" from="3" to="55" begin="300" end="599" number="1" type="carB" color="1,0,0"/>
	<flow id="80" from="3" to="55" begin="300" end="599" number="8" type="carA" color="1,0,1"/>
	<flow id="81" from="4" to="11" begin="300" end="599" number="8" type="carB" color="1,0,0"/>
	<flow id="82" from="4" to="11" begin="300" end="599" number="5" type="carA" color="1,0,1"/>
	<flow id="83" from="4" to="22" begin="300" end="599" number="0" type="carB" color="1,0,0"/>
	<flow id="84" from="4" to="22" begin="300" end="599" number="0" type="carA" color="1,0,1"/>
	<flow id="85" from="4" to="33" begin="300" end="599" number="0" type="carB" color="1,0,0"/>
	<flow id="86" from="4" to="33" begin="300" end="599" number="1" type="carA" color="1,0,1"/>
	<flow id="87" from="4" to="44" begin="300" end="599" number="0" type="carB" color="1,0,0"/>
	<flow id="88" from="4" to="44" begin="300" end="599" number="0" type="carA" color="1,0,1"/>
	<flow id="89" from="4" to="55" begin="300" end="599" number="0" type="carB" color="1,0,0"/>
	<flow id="90" from="4" to="55" begin="300" end="599" number="0" type="carA" color="1,0,1"/>
	<flow id="91" from="5" to="11" begin="300" end="599" number="0" type="carB" color="1,0,0"/>
	<flow id="92" from="5" to="11" begin="300" end="599" number="4" type="carA" color="1,0,1"/>
	<flow id="93" from="5" to="22" begin="300" end="599" number="0" type="carB" color="1,0,0"/>
	<flow id="94" from="5" to="22" begin="300" end="599" number="0" type="carA" color="1,0,1"/>
	<flow id="95" from="5" to="33" begin="300" end="599" number="1" type="carB" color="1,0,0"/>
	<flow id="96" from="5" to="33" begin="300" end="599" number="2" type="carA" color="1,0,1"/>
	<flow id="97" from="5" to="44" begin="300" end="599" number="0" type="carB" color="1,0,0"/>
	<flow id="98" from="5" to="44" begin="300" end="599" number="0" type="carA" color="1,0,1"/>
	<flow id="99" from="5" to="55" begin="300" end="599" number="0" type="carB" color="1,0,0"/>
	<flow id="100" from="5" to="55" begin="300" end="599" number="0" type="carA" color="1,0,1"/>
	<flow id="101" from="1" to="11" begin="600" end="899" number="0" type="carB" color="1,0,0"/>
	<flow id="102" from="1" to="11" begin="600" end="899" number="0" type="carA" color="1,0,0"/>
	<flow id="103" from="1" to="22" begin="600" end="899" number="0" type="carB" color="1,0,0"/>
	<flow id="104" from="1" to="22" begin="600" end="899" number="0" type="carA" color="1,0,0"/>
	<flow id="105" from="1" to="33" begin="600" end="899" number="2" type="carB" color="1,0,0"/>
	<flow id="106" from="1" to="33" begin="600" end="899" number="0" type="carA" color="1,0,0"/>
	<flow id="107" from="1" to="44" begin="600" end="899" number="3" type="carB" color="1,0,0"/>
	<flow id="108" from="1" to="44" begin="600" end="899" number="2" type="carA" color="1,0,0"/>
	<flow id="109" from="1" to="55" begin="600" end="899" number="0" type="carB" color="1,0,0"/>
	<flow id="110" from="1" to="55" begin="600" end="899" number="0" type="carA" color="1,0,0"/>
	<flow id="111" from="2" to="11" begin="600" end="899" number="0" type="carB" color="1,0,0"/>
	<flow id="112" from="2" to="11" begin="600" end="899" number="0" type="carA" color="1,0,0"/>
	<flow id="113" from="2" to="22" begin="600" end="899" number="0" type="carB" color="1,0,0"/>
	<flow id="114" from="2" to="22" begin="600" end="899" number="0" type="carA" color="1,0,0"/>
	<flow id="115" from="2" to="33" begin="600" end="899" number="0" type="carB" color="1,0,0"/>
	<flow id="116" from="2" to="33" begin="600" end="899" number="0" type="carA" color="1,0,0"/>
	<flow id="117" from="2" to="44" begin="600" end="899" number="0" type="carB" color="1,0,0"/>
	<flow id="118" from="2" to="44" begin="600" end="899" number="0" type="carA" color="1,0,1"/>
	<flow id="119" from="2" to="55" begin="600" end="899" number="0" type="carB" color="1,0,0"/>
	<flow id="120" from="2" to="55" begin="600" end="899" number="0" type="carA" color="1,0,0"/>
	<flow id="121" from="3" to="11" begin="600" end="899" number="2" type="carB" color="1,0,0"/>
	<flow id="122" from="3" to="11" begin="600" end="899" number="0" type="carA" color="1,0,0"/>
	<flow id="123" from="3" to="22" begin="600" end="899" number="0" type="carB" color="1,0,0"/>
	<flow id="124" from="3" to="22" begin="600" end="899" number="0" type="carA" color="1,0,0"/>
	<flow id="125" from="3" to="33" begin="600" end="899" number="0" type="carB" color="1,0,0"/>
	<flow id="126" from="3" to="33" begin="600" end="899" number="0" type="carA" color="1,0,1"/>
	<flow id="127" from="3" to="44" begin="600" end="899" number="0" type="carB" color="1,0,0"/>
	<flow id="128" from="3" to="44" begin="600" end="899" number="0" type="carA" color="1,0,1"/>
	<flow id="129" from="3" to="55" begin="600" end="899" number="1" type="carB" color="1,0,0"/>
	<flow id="130" from="3" to="55" begin="600" end="899" number="0" type="carA" color="1,0,1"/>
	<flow id="131" from="4" to="11" begin="600" end="899" number="3" type="carB" color="1,0,0"/>
	<flow id="132" from="4" to="11" begin="600" end="899" number="4" type="carA" color="1,0,1"/>
	<flow id="133" from="4" to="22" begin="600" end="899" number="1" type="carB" color="1,0,0"/>
	<flow id="134" from="4" to="22" begin="600" end="899" number="0" type="carA" color="1,0,1"/>
	<flow id="135" from="4" to="33" begin="600" end="899" number="0" type="carB" color="1,0,0"/>
	<flow id="136" from="4" to="33" begin="600" end="899" number="0" type="carA" color="1,0,1"/>
	<flow id="137" from="4" to="44" begin="600" end="899" number="0" type="carB" color="1,0,0"/>
	<flow id="138" from="4" to="44" begin="600" end="899" number="0" type="carA" color="1,0,0"/>
	<flow id="139" from="4" to="55" begin="600" end="899" number="0" type="carB" color="1,0,0"/>
	<flow id="140" from="4" to="55" begin="600" end="899" number="0" type="carA" color="1,0,1"/>
	<flow id="141" from="5" to="11" begin="600" end="899" number="0" type="carB" color="1,0,0"/>
	<flow id="142" from="5" to="11" begin="600" end="899" number="12" type="carA" color="1,0,1"/>
	<flow id="143" from="5" to="22" begin="600" end="899" number="0" type="carB" color="1,0,0"/>
	<flow id="144" from="5" to="22" begin="600" end="899" number="0" type="carA" color="1,0,0"/>
	<flow id="145" from="5" to="33" begin="600" end="899" number="2" type="carB" color="1,0,0"/>
	<flow id="146" from="5" to="33" begin="600" end="899" number="2" type="carA" color="1,0,1"/>
	<flow id="147" from="5" to="44" begin="600" end="899" number="0" type="carB" color="1,0,0"/>
	<flow id="148" from="5" to="44" begin="600" end="899" number="0" type="carA" color="1,0,1"/>
	<flow id="149" from="5" to="55" begin="600" end="899" number="0" type="carB" color="1,0,0"/>
	<flow id="150" from="5" to="55" begin="600" end="899" number="0" type="carA" color="1,0,0"/>
	<flow id="151" from="1" to="11" begin="900" end="1199" number="0" type="carB" color="1,0,0"/>
	<flow id="152" from="1" to="11" begin="900" end="1199" number="0" type="carA" color="1,0,0"/>
	<flow id="153" from="1" to="22" begin="900" end="1199" number="0" type="carB" color="1,0,0"/>
	<flow id="154" from="1" to="22" begin="900" end="1199" number="0" type="carA" color="1,0,0"/>
	<flow id="155" from="1" to="33" begin="900" end="1199" number="0" type="carB" color="1,0,0"/>
	<flow id="156" from="1" to="33" begin="900" end="1199" number="0" type="carA" color="1,0,1"/>
	<flow id="157" from="1" to="44" begin="900" end="1199" number="3" type="carB" color="1,0,0"/>
	<flow id="158" from="1" to="44" begin="900" end="1199" number="2" type="carA" color="1,0,1"/>
	<flow id="159" from="1" to="55" begin="900" end="1199" number="0" type="carB" color="1,0,0"/>
	<flow id="160" from="1" to="55" begin="900" end="1199" number="3" type="carA" color="1,0,1"/>
	<flow id="161" from="2" to="11" begin="900" end="1199" number="0" type="carB" color="1,0,0"/>
	<flow id="162" from="2" to="11" begin="900" end="1199" number="0" type="carA" color="1,0,1"/>
	<flow id="163" from="2" to="22" begin="900" end="1199" number="0" type="carB" color="1,0,0"/>
	<flow id="164" from="2" to="22" begin="900" end="1199" number="0" type="carA" color="1,0,1"/>
	<flow id="165" from="2" to="33" begin="900" end="1199" number="0" type="carB" color="1,0,0"/>
	<flow id="166" from="2" to="33" begin="900" end="1199" number="0" type="carA" color="1,0,1"/>
	<flow id="167" from="2" to="44" begin="900" end="1199" number="0" type="carB" color="1,0,0"/>
	<flow id="168" from="2" to="44" begin="900" end="1199" number="0" type="carA" color="1,0,1"/>
	<flow id="169" from="2" to="55" begin="900" end="1199" number="0" type="carB" color="1,0,0"/>
	<flow id="170" from="2" to="55" begin="900" end="1199" number="0" type="carA" color="1,0,1"/>
	<flow id="171" from="3" to="11" begin="900" end="1199" number="0" type="carB" color="1,0,0"/>
	<flow id="172" from="3" to="11" begin="900" end="1199" number="1" type="carA" color="1,0,1"/>
	<flow id="173" from="3" to="22" begin="900" end="1199" number="0" type="carB" color="1,0,0"/>
	<flow id="174" from="3" to="22" begin="900" end="1199" number="0" type="carA" color="1,0,1"/>
	<flow id="175" from="3" to="33" begin="900" end="1199" number="0" type="carB" color="1,0,0"/>
	<flow id="176" from="3" to="33" begin="900" end="1199" number="0" type="carA" color="1,0,1"/>
	<flow id="177" from="3" to="44" begin="900" end="1199" number="0" type="carB" color="1,0,0"/>
	<flow id="178" from="3" to="44" begin="900" end="1199" number="0" type="carA" color="1,0,1"/>
	<flow id="179" from="3" to="55" begin="900" end="1199" number="0" type="carB" color="1,0,0"/>
	<flow id="180" from="3" to="55" begin="900" end="1199" number="2" type="carA" color="1,0,1"/>
	<flow id="181" from="4" to="11" begin="900" end="1199" number="4" type="carB" color="1,0,0"/>
	<flow id="182" from="4" to="11" begin="900" end="1199" number="4" type="carA" color="1,0,1"/>
	<flow id="183" from="4" to="22" begin="900" end="1199" number="0" type="carB" color="1,0,0"/>
	<flow id="184" from="4" to="22" begin="900" end="1199" number="0" type="carA" color="1,0,1"/>
	<flow id="185" from="4" to="33" begin="900" end="1199" number="1" type="carB" color="1,0,0"/>
	<flow id="186" from="4" to="33" begin="900" end="1199" number="1" type="carA" color="1,0,1"/>
	<flow id="187" from="4" to="44" begin="900" end="1199" number="0" type="carB" color="1,0,0"/>
	<flow id="188" from="4" to="44" begin="900" end="1199" number="0" type="carA" color="1,0,1"/>
	<flow id="189" from="4" to="55" begin="900" end="1199" number="0" type="carB" color="1,0,0"/>
	<flow id="190" from="4" to="55" begin="900" end="1199" number="0" type="carA" color="1,0,1"/>
	<flow id="191" from="5" to="11" begin="900" end="1199" number="0" type="carB" color="1,0,0"/>
	<flow id="192" from="5" to="11" begin="900" end="1199" number="3" type="carA" color="1,0,1"/>
	<flow id="193" from="5" to="22" begin="900" end="1199" number="0" type="carB" color="1,0,0"/>
	<flow id="194" from="5" to="22" begin="900" end="1199" number="0" type="carA" color="1,0,1"/>
	<flow id="195" from="5" to="33" begin="900" end="1199" number="2" type="carB" color="1,0,0"/>
	<flow id="196" from="5" to="33" begin="900" end="1199" number="1" type="carA" color="1,0,1"/>
	<flow id="197" from="5" to="44" begin="900" end="1199" number="0" type="carB" color="1,0,0"/>
	<flow id="198" from="5" to="44" begin="900" end="1199" number="1" type="carA" color="1,0,1"/>
	<flow id="199" from="5" to="55" begin="900" end="1199" number="0" type="carB" color="1,0,0"/>
	<flow id="200" from="5" to="55" begin="900" end="1199" number="0" type="carA" color="1,0,1"/>
	<flow id="201" from="1" to="11" begin="1200" end="1499" number="0" type="carB" color="1,0,0"/>
	<flow id="202" from="1" to="11" begin="1200" end="1499" number="0" type="carA" color="1,0,1"/>
	<flow id="203" from="1" to="22" begin="1200" end="1499" number="0" type="carB" color="1,0,0"/>
	<flow id="204" from="1" to="22" begin="1200" end="1499" number="0" type="carA" color="1,0,1"/>
	<flow id="205" from="1" to="33" begin="1200" end="1499" number="2" type="carB" color="1,0,0"/>
	<flow id="206" from="1" to="33" begin="1200" end="1499" number="0" type="carA" color="1,0,1"/>
	<flow id="207" from="1" to="44" begin="1200" end="1499" number="1" type="carB" color="1,0,0"/>
	<flow id="208" from="1" to="44" begin="1200" end="1499" number="0" type="carA" color="1,0,1"/>
	<flow id="209" from="1" to="55" begin="1200" end="1499" number="0" type="carB" color="1,0,0"/>
	<flow id="210" from="1" to="55" begin="1200" end="1499" number="3" type="carA" color="1,0,1"/>
	<flow id="211" from="2" to="11" begin="1200" end="1499" number="0" type="carB" color="1,0,0"/>
	<flow id="212" from="2" to="11" begin="1200" end="1499" number="0" type="carA" color="1,0,1"/>
	<flow id="213" from="2" to="22" begin="1200" end="1499" number="0" type="carB" color="1,0,0"/>
	<flow id="214" from="2" to="22" begin="1200" end="1499" number="0" type="carA" color="1,0,1"/>
	<flow id="215" from="2" to="33" begin="1200" end="1499" number="0" type="carB" color="1,0,0"/>
	<flow id="216" from="2" to="33" begin="1200" end="1499" number="0" type="carA" color="1,0,1"/>
	<flow id="217" from="2" to="44" begin="1200" end="1499" number="0" type="carB" color="1,0,0"/>
	<flow id="218" from="2" to="44" begin="1200" end="1499" number="0" type="carA" color="1,0,1"/>
	<flow id="219" from="2" to="55" begin="1200" end="1499" number="0" type="carB" color="1,0,0"/>
	<flow id="220" from="2" to="55" begin="1200" end="1499" number="0" type="carA" color="1,0,1"/>
	<flow id="221" from="3" to="11" begin="1200" end="1499" number="0" type="carB" color="1,0,0"/>
	<flow id="222" from="3" to="11" begin="1200" end="1499" number="0" type="carA" color="1,0,1"/>
	<flow id="223" from="3" to="22" begin="1200" end="1499" number="0" type="carB" color="1,0,0"/>
	<flow id="224" from="3" to="22" begin="1200" end="1499" number="0" type="carA" color="1,0,1"/>
	<flow id="225" from="3" to="33" begin="1200" end="1499" number="0" type="carB" color="1,0,0"/>
	<flow id="226" from="3" to="33" begin="1200" end="1499" number="0" type="carA" color="1,0,1"/>
	<flow id="227" from="3" to="44" begin="1200" end="1499" number="0" type="carB" color="1,0,0"/>
	<flow id="228" from="3" to="44" begin="1200" end="1499" number="0" type="carA" color="1,0,1"/>
	<flow id="229" from="3" to="55" begin="1200" end="1499" number="1" type="carB" color="1,0,0"/>
	<flow id="230" from="3" to="55" begin="1200" end="1499" number="2" type="carA" color="1,0,1"/>
	<flow id="231" from="4" to="11" begin="1200" end="1499" number="7" type="carB" color="1,0,0"/>
	<flow id="232" from="4" to="11" begin="1200" end="1499" number="0" type="carA" color="1,0,1"/>
	<flow id="233" from="4" to="22" begin="1200" end="1499" number="0" type="carB" color="1,0,0"/>
	<flow id="234" from="4" to="22" begin="1200" end="1499" number="0" type="carA" color="1,0,1"/>
	<flow id="235" from="4" to="33" begin="1200" end="1499" number="0" type="carB" color="1,0,0"/>
	<flow id="236" from="4" to="33" begin="1200" end="1499" number="0" type="carA" color="1,0,1"/>
	<flow id="237" from="4" to="44" begin="1200" end="1499" number="0" type="carB" color="1,0,0"/>
	<flow id="238" from="4" to="44" begin="1200" end="1499" number="0" type="carA" color="1,0,1"/>
	<flow id="239" from="4" to="55" begin="1200" end="1499" number="0" type="carB" color="1,0,0"/>
	<flow id="240" from="4" to="55" begin="1200" end="1499" number="0" type="carA" color="1,0,1"/>
	<flow id="241" from="5" to="11" begin="1200" end="1499" number="3" type="carB" color="1,0,0"/>
	<flow id="242" from="5" to="11" begin="1200" end="1499" number="4" type="carA" color="1,0,1"/>
	<flow id="243" from="5" to="22" begin="1200" end="1499" number="0" type="carB" color="1,0,0"/>
	<flow id="244" from="5" to="22" begin="1200" end="1499" number="0" type="carA" color="1,0,1"/>
	<flow id="245" from="5" to="33" begin="1200" end="1499" number="0" type="carB" color="1,0,0"/>
	<flow id="246" from="5" to="33" begin="1200" end="1499" number="1" type="carA" color="1,0,1"/>
	<flow id="247" from="5" to="44" begin="1200" end="1499" number="1" type="carB" color="1,0,0"/>
	<flow id="248" from="5" to="44" begin="1200" end="1499" number="1" type="carA" color="1,0,1"/>
	<flow id="249" from="5" to="55" begin="1200" end="1499" number="0" type="carB" color="1,0,0"/>
	<flow id="250" from="5" to="55" begin="1200" end="1499" number="0" type="carA" color="1,0,1"/>
	<flow id="251" from="1" to="11" begin="1500" end="1799" number="0" type="carB" color="1,0,0"/>
	<flow id="252" from="1" to="11" begin="1500" end="1799" number="0" type="carA" color="1,0,1"/>
	<flow id="253" from="1" to="22" begin="1500" end="1799" number="0" type="carB" color="1,0,0"/>
	<flow id="254" from="1" to="22" begin="1500" end="1799" number="0" type="carA" color="1,0,1"/>
	<flow id="255" from="1" to="33" begin="1500" end="1799" number="0" type="carB" color="1,0,0"/>
	<flow id="256" from="1" to="33" begin="1500" end="1799" number="0" type="carA" color="1,0,1"/>
	<flow id="257" from="1" to="44" begin="1500" end="1799" number="0" type="carB" color="1,0,0"/>
	<flow id="258" from="1" to="44" begin="1500" end="1799" number="1" type="carA" color="1,0,1"/>
	<flow id="259" from="1" to="55" begin="1500" end="1799" number="2" type="carB" color="1,0,0"/>
	<flow id="260" from="1" to="55" begin="1500" end="1799" number="1" type="carA" color="1,0,1"/>
	<flow id="261" from="2" to="11" begin="1500" end="1799" number="0" type="carB" color="1,0,0"/>
	<flow id="262" from="2" to="11" begin="1500" end="1799" number="0" type="carA" color="1,0,1"/>
	<flow id="263" from="2" to="22" begin="1500" end="1799" number="0" type="carB" color="1,0,0"/>
	<flow id="264" from="2" to="22" begin="1500" end="1799" number="0" type="carA" color="1,0,1"/>
	<flow id="265" from="2" to="33" begin="1500" end="1799" number="0" type="carB" color="1,0,0"/>
	<flow id="266" from="2" to="33" begin="1500" end="1799" number="0" type="carA" color="1,0,1"/>
	<flow id="267" from="2" to="44" begin="1500" end="1799" number="0" type="carB" color="1,0,0"/>
	<flow id="268" from="2" to="44" begin="1500" end="1799" number="0" type="carA" color="1,0,1"/>
	<flow id="269" from="2" to="55" begin="1500" end="1799" number="0" type="carB" color="1,0,0"/>
	<flow id="270" from="2" to="55" begin="1500" end="1799" number="0" type="carA" color="1,0,1"/>
	<flow id="271" from="3" to="11" begin="1500" end="1799" number="4" type="carB" color="1,0,0"/>
	<flow id="272" from="3" to="11" begin="1500" end="1799" number="0" type="carA" color="1,0,1"/>
	<flow id="273" from="3" to="22" begin="1500" end="1799" number="0" type="carB" color="1,0,0"/>
	<flow id="274" from="3" to="22" begin="1500" end="1799" number="0" type="carA" color="1,0,1"/>
	<flow id="275" from="3" to="33" begin="1500" end="1799" number="0" type="carB" color="1,0,0"/>
	<flow id="276" from="3" to="33" begin="1500" end="1799" number="0" type="carA" color="1,0,1"/>
	<flow id="277" from="3" to="44" begin="1500" end="1799" number="0" type="carB" color="1,0,0"/>
	<flow id="278" from="3" to="44" begin="1500" end="1799" number="0" type="carA" color="1,0,1"/>
	<flow id="279" from="3" to="55" begin="1500" end="1799" number="1" type="carB" color="1,0,0"/>
	<flow id="280" from="3" to="55" begin="1500" end="1799" number="2" type="carA" color="1,0,1"/>
	<flow id="281" from="4" to="11" begin="1500" end="1799" number="2" type="carB" color="1,0,0"/>
	<flow id="282" from="4" to="11" begin="1500" end="1799" number="5" type="carA" color="1,0,1"/>
	<flow id="283" from="4" to="22" begin="1500" end="1799" number="0" type="carB" color="1,0,0"/>
	<flow id="284" from="4" to="22" begin="1500" end="1799" number="0" type="carA" color="1,0,1"/>
	<flow id="285" from="4" to="33" begin="1500" end="1799" number="0" type="carB" color="1,0,0"/>
	<flow id="286" from="4" to="33" begin="1500" end="1799" number="0" type="carA" color="1,0,1"/>
	<flow id="287" from="4" to="44" begin="1500" end="1799" number="0" type="carB" color="1,0,0"/>
	<flow id="288" from="4" to="44" begin="1500" end="1799" number="1" type="carA" color="1,0,1"/>
	<flow id="289" from="4" to="55" begin="1500" end="1799" number="0" type="carB" color="1,0,0"/>
	<flow id="290" from="4" to="55" begin="1500" end="1799" number="0" type="carA" color="1,0,1"/>
	<flow id="291" from="5" to="11" begin="1500" end="1799" number="1" type="carB" color="1,0,0"/>
	<flow id="292" from="5" to="11" begin="1500" end="1799" number="2" type="carA" color="1,0,1"/>
	<flow id="293" from="5" to="22" begin="1500" end="1799" number="0" type="carB" color="1,0,0"/>
	<flow id="294" from="5" to="22" begin="1500" end="1799" number="0" type="carA" color="1,0,1"/>
	<flow id="295" from="5" to="33" begin="1500" end="1799" number="1" type="carB" color="1,0,0"/>
	<flow id="296" from="5" to="33" begin="1500" end="1799" number="2" type="carA" color="1,0,1"/>
	<flow id="297" from="5" to="44" begin="1500" end="1799" number="0" type="carB" color="1,0,0"/>
	<flow id="298" from="5" to="44" begin="1500" end="1799" number="0" type="carA" color="1,0,1"/>
	<flow id="299" from="5" to="55" begin="1500" end="1799" number="0" type="carB" color="1,0,0"/>
	<flow id="300" from="5" to="55" begin="1500" end="1799" number="0" type="carA" color="1,0,1"/>
	<flow id="301" from="1" to="11" begin="1800" end="2099" number="0" type="carB" color="1,0,0"/>
	<flow id="302" from="1" to="11" begin="1800" end="2099" number="1" type="carA" color="1,0,1"/>
	<flow id="303" from="1" to="22" begin="1800" end="2099" number="0" type="carB" color="1,0,0"/>
	<flow id="304" from="1" to="22" begin="1800" end="2099" number="0" type="carA" color="1,0,1"/>
	<flow id="305" from="1" to="33" begin="1800" end="2099" number="0" type="carB" color="1,0,0"/>
	<flow id="306" from="1" to="33" begin="1800" end="2099" number="0" type="carA" color="1,0,1"/>
	<flow id="307" from="1" to="44" begin="1800" end="2099" number="1" type="carB" color="1,0,0"/>
	<flow id="308" from="1" to="44" begin="1800" end="2099" number="0" type="carA" color="1,0,1"/>
	<flow id="309" from="1" to="55" begin="1800" end="2099" number="1" type="carB" color="1,0,0"/>
	<flow id="310" from="1" to="55" begin="1800" end="2099" number="1" type="carA" color="1,0,1"/>
	<flow id="311" from="2" to="11" begin="1800" end="2099" number="1" type="carB" color="1,0,0"/>