<?xml version="1.0" encoding="UTF-8"?>

<!-- generated on 11/9/2018 6:42:10 PM by Netedit Version 0.32.0
<?xml version="1.0" encoding="UTF-8"?>

<configuration xmlns:xsi="http://www.w3.org/2001/XMLSchema-instance" xsi:noNamespaceSchemaLocation="http://sumo.dlr.de/xsd/netconvertConfiguration.xsd">

    <input>
        <sumo-net-file value="C:\Users\Muzamil%20Ali\Desktop\sumo_demo\my_intersection\kilis03.net.xml"/>
    </input>

    <output>
        <output-file value="C:\Users\Muzamil%20Ali\Desktop\sumo_demo\my_intersection\kilis03.net.xml"/>
    </output>

    <processing>
        <no-internal-links value="false"/>
        <no-turnarounds value="true"/>
        <offset.disable-normalization value="true"/>
        <lefthand value="false"/>
        <junctions.corner-detail value="0"/>
        <rectangular-lane-cut value="false"/>
        <walkingareas value="false"/>
    </processing>

</configuration>
-->

<net version="0.27" xmlns:xsi="http://www.w3.org/2001/XMLSchema-instance" xsi:noNamespaceSchemaLocation="http://sumo.dlr.de/xsd/net_file.xsd">

    <location netOffset="0.00,0.00" convBoundary="-121.46,4.21,122.54,149.34" origBoundary="-10000000000.00,-10000000000.00,10000000000.00,10000000000.00" projParameter="!"/>

    <edge id=":0_0" function="internal">
        <lane id=":0_0_0" index="0" speed="50.00" length="20.13" shape="9.37,61.38 8.13,62.87 6.47,66.45 4.39,72.14 1.90,79.93"/>
    </edge>
    <edge id=":0_1" function="internal">
        <lane id=":0_1_0" index="0" speed="50.00" length="28.47" shape="9.37,61.38 -16.97,72.29"/>
        <lane id=":0_1_1" index="1" speed="50.00" length="28.47" shape="8.08,58.34 -18.22,69.24"/>
        <lane id=":0_1_2" index="2" speed="50.00" length="28.47" shape="6.78,55.30 -19.48,66.19"/>
    </edge>
    <edge id=":0_4" function="internal">
        <lane id=":0_4_0" index="0" speed="50.00" length="4.82" shape="6.78,55.30 5.32,55.03 4.62,54.43 4.68,53.51 5.49,52.27"/>
    </edge>
    <edge id=":0_5" function="internal">
        <lane id=":0_5_0" index="0" speed="50.00" length="28.35" shape="-23.24,57.03 2.91,46.20"/>
        <lane id=":0_5_1" index="1" speed="50.00" length="28.35" shape="-21.99,60.08 4.20,49.23"/>
        <lane id=":0_5_2" index="2" speed="50.00" length="28.35" shape="-20.73,63.14 5.49,52.27"/>
    </edge>
    <edge id=":0_8" function="internal">
        <lane id=":0_8_0" index="0" speed="50.00" length="37.67" shape="-20.73,63.14 -9.08,59.83 -1.96,61.37 0.65,67.75 -1.26,78.97"/>
    </edge>
    <edge id=":0_9" function="internal">
        <lane id=":0_9_0" index="0" speed="50.00" length="33.17" shape="-20.73,63.14 -10.76,60.38 -4.72,61.94 -2.60,67.82 -4.41,78.00"/>
    </edge>
    <edge id=":0_10" function="internal">
        <lane id=":0_10_0" index="0" speed="50.00" length="4.82" shape="-20.73,63.14 -19.28,63.43 -18.58,64.03 -18.65,64.95 -19.48,66.19"/>
    </edge>
    <edge id=":0_11" function="internal">
        <lane id=":0_11_0" index="0" speed="50.00" length="6.28" shape="-13.88,75.10 -13.54,73.18 -13.94,72.07 -15.08,71.77 -16.97,72.29"/>
    </edge>
    <edge id=":0_12" function="internal">
        <lane id=":0_12_0" index="0" speed="50.00" length="31.34" shape="-10.73,76.07 -7.09,65.56 -3.39,57.58 0.37,52.14 4.20,49.23"/>
    </edge>
    <edge id=":0_13" function="internal">
        <lane id=":0_13_0" index="0" speed="50.00" length="28.51" shape="-7.57,77.03 -4.22,67.21 -0.93,59.80 2.31,54.82 5.49,52.27"/>
    </edge>
    <edge id=":0_14" function="internal">
        <lane id=":0_14_0" index="0" speed="50.00" length="4.82" shape="-7.57,77.03 -6.42,76.09 -5.51,75.94 -4.84,76.58 -4.41,78.00"/>
    </edge>
    <edge id=":0_w0" function="walkingarea">
        <lane id=":0_w0_0" index="0" allow="pedestrian" speed="1.00" length="24.34" width="3.20" shape="10.00,62.85 8.74,59.90 8.70,59.81 7.45,56.87 7.41,56.78 6.16,53.83 6.12,53.74 4.86,50.80 4.83,50.70 3.57,47.76 3.53,47.67 2.28,44.72 -23.85,55.55 -22.64,58.51 -22.60,58.60 -21.38,61.56 -21.34,61.66 -20.13,64.62 -20.09,64.71 -18.87,67.67 -18.83,67.76 -17.61,70.72 -17.58,70.81 -16.36,73.77 -15.41,74.64 -12.35,75.57 -12.26,75.60 -9.20,76.54 -9.10,76.57 -6.04,77.50 -5.94,77.53 -2.88,78.47 -2.79,78.50 0.27,79.43 0.37,79.46 3.43,80.40"/>
    </edge>
    <edge id=":gneJ0_w0" function="walkingarea">
        <lane id=":gneJ0_w0_0" index="0" allow="pedestrian" speed="1.00" length="16.50" width="3.20" shape="-121.48,106.30 -122.70,103.34 -122.73,103.25 -123.95,100.29 -123.99,100.20 -125.21,97.24 -117.71,115.46 -118.93,112.50 -118.97,112.41 -120.19,109.45 -120.22,109.36 -121.44,106.40"/>
    </edge>
    <edge id=":gneJ2_w0" function="walkingarea">
        <lane id=":gneJ2_w0_0" index="0" allow="pedestrian" speed="1.00" length="16.50" width="3.20" shape="122.56,4.26 123.81,7.20 123.85,7.29 125.11,10.24 125.15,10.33 126.40,13.27 118.68,-4.85 119.93,-1.91 119.97,-1.82 121.23,1.13 121.27,1.22 122.52,4.16"/>
    </edge>
    <edge id=":gneJ3_w0" function="walkingarea">
        <lane id=":gneJ3_w0_0" index="0" allow="pedestrian" speed="1.00" length="16.50" width="3.20" shape="-28.02,149.33 -31.08,148.39 -31.17,148.36 -34.23,147.42 -34.33,147.39 -37.39,146.46 -18.55,152.22 -21.61,151.29 -21.71,151.26 -24.77,150.32 -24.86,150.29 -27.92,149.35"/>
    </edge>

    <edge id="1" from="gneJ2" to="0" priority="1">
        <lane id="1_0" index="0" speed="50.00" length="126.52" shape="125.77,11.80 9.37,61.38"/>
        <lane id="1_1" index="1" speed="50.00" length="126.52" shape="124.48,8.76 8.08,58.34"/>
        <lane id="1_2" index="2" speed="50.00" length="126.52" shape="123.19,5.73 6.78,55.30"/>
    </edge>
    <edge id="11" from="0" to="gneJ2" priority="1">
        <lane id="11_0" index="0" speed="50.00" length="126.52" shape="2.91,46.20 119.31,-3.38"/>
        <lane id="11_1" index="1" speed="50.00" length="126.52" shape="4.20,49.23 120.60,-0.34"/>
        <lane id="11_2" index="2" speed="50.00" length="126.52" shape="5.49,52.27 121.89,2.69"/>
    </edge>
    <edge id="2" from="gneJ0" to="0" priority="1">
        <lane id="2_0" index="0" speed="50.00" length="109.59" shape="-124.60,98.72 -23.24,57.03"/>
        <lane id="2_1" index="1" speed="50.00" length="109.59" shape="-123.34,101.77 -21.99,60.08"/>
        <lane id="2_2" index="2" speed="50.00" length="109.59" shape="-122.09,104.82 -20.73,63.14"/>
    </edge>
    <edge id="22" from="0" to="gneJ0" priority="1">
        <lane id="22_0" index="0" speed="50.00" length="109.59" shape="-16.97,72.29 -118.32,113.98"/>
        <lane id="22_1" index="1" speed="50.00" length="109.59" shape="-18.22,69.24 -119.58,110.93"/>
        <lane id="22_2" index="2" speed="50.00" length="109.59" shape="-19.48,66.19 -120.83,107.88"/>
    </edge>
    <edge id="3" from="gneJ3" to="0" priority="1">
        <lane id="3_0" index="0" speed="50.00" length="75.11" shape="-35.86,146.93 -13.88,75.10"/>
        <lane id="3_1" index="1" speed="50.00" length="75.11" shape="-32.70,147.89 -10.73,76.07"/>
        <lane id="3_2" index="2" speed="50.00" length="75.11" shape="-29.55,148.86 -7.57,77.03"/>
    </edge>
    <edge id="33" from="0" to="gneJ3" priority="1">
        <lane id="33_0" index="0" speed="50.00" length="75.11" shape="1.90,79.93 -20.08,151.75"/>
        <lane id="33_1" index="1" speed="50.00" length="75.11" shape="-1.26,78.97 -23.24,150.79"/>
        <lane id="33_2" index="2" speed="50.00" length="75.11" shape="-4.41,78.00 -26.39,149.82"/>
    </edge>

    <tlLogic id="0" type="static" programID="0" offset="0">
        <phase duration="20" state="GGGGGrrrrrrrrrrr"/>
        <phase duration="3" state="yyyyyyyyyyyyyyyy"/>
        <phase duration="6" state="rrrrrGGGGGGrrrrr"/>
        <phase duration="3" state="yyyyyyyyyyyyyyyy"/>
        <phase duration="10" state="rrrrrrrrrrrGGGGG"/>
        <phase duration="3" state="yyyyyyyyyyyyyyyy"/>
    </tlLogic>

    <junction id="0" type="traffic_light" x="0.54" y="56.17" incLanes="1_0 1_1 1_2 2_0 2_1 2_2 3_0 3_1 3_2" intLanes=":0_0_0 :0_1_0 :0_1_1 :0_1_2 :0_4_0 :0_5_0 :0_5_1 :0_5_2 :0_8_0 :0_9_0 :0_10_0 :0_11_0 :0_12_0 :0_13_0 :0_14_0" shape="10.00,62.85 2.28,44.72 -23.85,55.55 -16.36,73.77 -15.41,74.64 3.43,80.40">
        <request index="0" response="000000000000000" foes="100001100000000" cont="0"/>
        <request index="1" response="000000000000000" foes="011111100000000" cont="0"/>
        <request index="2" response="000000000000000" foes="011111100000000" cont="0"/>
        <request index="3" response="000000000000000" foes="011111100000000" cont="0"/>
        <request index="4" response="011000011100000" foes="011000011100000" cont="0"/>
        <request index="5" response="000000000000000" foes="011000000010000" cont="0"/>
        <request index="6" response="000000000000000" foes="011000000010000" cont="0"/>
        <request index="7" response="000000000000000" foes="011000000010000" cont="0"/>
        <request index="8" response="000000000001111" foes="111000000001111" cont="0"/>
        <request index="9" response="000000000001111" foes="111000000001111" cont="0"/>
        <request index="10" response="000100000001110" foes="000100000001110" cont="0"/>
        <request index="11" response="000000000001110" foes="000010000001110" cont="0"/>
        <request index="12" response="000001111101110" foes="000001111111110" cont="0"/>
        <request index="13" response="000001111101110" foes="000001111111110" cont="0"/>
        <request index="14" response="000001100000001" foes="000001100000001" cont="0"/>
    </junction>
    <junction id="gneJ0" type="dead_end" x="-121.46" y="106.35" incLanes="22_0 22_1 22_2" intLanes="" shape="-121.48,106.30 -117.71,115.46 -121.44,106.40"/>
    <junction id="gneJ2" type="dead_end" x="122.54" y="4.21" incLanes="11_0 11_1 11_2" intLanes="" shape="122.56,4.26 118.68,-4.85 122.52,4.16"/>
    <junction id="gneJ3" type="dead_end" x="-27.97" y="149.34" incLanes="33_0 33_1 33_2" intLanes="" shape="-28.02,149.33 -18.55,152.22 -27.92,149.35"/>

    <connection from="1" to="33" fromLane="0" toLane="0" via=":0_0_0" tl="0" linkIndex="0" dir="r" state="o"/>
    <connection from="1" to="22" fromLane="0" toLane="0" via=":0_1_0" tl="0" linkIndex="1" dir="s" state="o"/>
    <connection from="1" to="22" fromLane="1" toLane="1" via=":0_1_1" tl="0" linkIndex="2" dir="s" state="o"/>
    <connection from="1" to="22" fromLane="2" toLane="2" via=":0_1_2" tl="0" linkIndex="3" dir="s" state="o"/>
    <connection from="1" to="11" fromLane="2" toLane="2" via=":0_4_0" tl="0" linkIndex="4" dir="t" state="o"/>
    <connection from="2" to="11" fromLane="0" toLane="0" via=":0_5_0" tl="0" linkIndex="5" dir="s" state="o"/>
    <connection from="2" to="11" fromLane="1" toLane="1" via=":0_5_1" tl="0" linkIndex="6" dir="s" state="o"/>
    <connection from="2" to="11" fromLane="2" toLane="2" via=":0_5_2" tl="0" linkIndex="7" dir="s" state="o"/>
    <connection from="2" to="33" fromLane="2" toLane="1" via=":0_8_0" tl="0" linkIndex="8" dir="l" state="o"/>
    <connection from="2" to="33" fromLane="2" toLane="2" via=":0_9_0" tl="0" linkIndex="9" dir="l" state="o"/>
    <connection from="2" to="22" fromLane="2" toLane="2" via=":0_10_0" tl="0" linkIndex="10" dir="t" state="o"/>
    <connection from="3" to="22" fromLane="0" toLane="0" via=":0_11_0" tl="0" linkIndex="11" dir="r" state="o"/>
    <connection from="3" to="11" fromLane="1" toLane="1" via=":0_12_0" tl="0" linkIndex="12" dir="l" state="o"/>
    <connection from="3" to="11" fromLane="2" toLane="2" via=":0_13_0" tl="0" linkIndex="13" dir="l" state="o"/>
    <connection from="3" to="33" fromLane="2" toLane="2" via=":0_14_0" tl="0" linkIndex="14" dir="t" state="o"/>

    <connection from=":0_0" to="33" fromLane="0" toLane="0" dir="r" state="M"/>
    <connection from=":0_1" to="22" fromLane="0" toLane="0" dir="s" state="M"/>
    <connection from=":0_1" to="22" fromLane="1" toLane="1" dir="s" state="M"/>
    <connection from=":0_1" to="22" fromLane="2" toLane="2" dir="s" state="M"/>
    <connection from=":0_4" to="11" fromLane="0" toLane="2" dir="t" state="M"/>
    <connection from=":0_5" to="11" fromLane="0" toLane="0" dir="s" state="M"/>
    <connection from=":0_5" to="11" fromLane="1" toLane="1" dir="s" state="M"/>
    <connection from=":0_5" to="11" fromLane="2" toLane="2" dir="s" state="M"/>
    <connection from=":0_8" to="33" fromLane="0" toLane="1" dir="l" state="M"/>
    <connection from=":0_9" to="33" fromLane="0" toLane="2" dir="l" state="M"/>
    <connection from=":0_10" to="22" fromLane="0" toLane="2" dir="t" state="M"/>
    <connection from=":0_11" to="22" fromLane="0" toLane="0" dir="r" state="M"/>
    <connection from=":0_12" to="11" fromLane="0" toLane="1" dir="l" state="M"/>
    <connection from=":0_13" to="11" fromLane="0" toLane="2" dir="l" state="M"/>
    <connection from=":0_14" to="33" fromLane="0" toLane="2" dir="t" state="M"/>

    <connection from=":0_w0" to="11" fromLane="0" toLane="0" dir="s" state="M"/>
    <connection from=":0_w0" to="22" fromLane="0" toLane="0" dir="s" state="M"/>
    <connection from=":0_w0" to="33" fromLane="0" toLane="0" dir="s" state="M"/>
    <connection from="1" to=":0_w0" fromLane="0" toLane="0" dir="s" state="M"/>
    <connection from="2" to=":0_w0" fromLane="0" toLane="0" dir="s" state="M"/>
    <connection from="3" to=":0_w0" fromLane="0" toLane="0" dir="s" state="M"/>
    <connection from=":gneJ0_w0" to="2" fromLane="0" toLane="0" dir="s" state="M"/>
    <connection from="22" to=":gneJ0_w0" fromLane="0" toLane="0" dir="s" state="M"/>
    <connection from=":gneJ2_w0" to="1" fromLane="0" toLane="0" dir="s" state="M"/>
    <connection from="11" to=":gneJ2_w0" fromLane="0" toLane="0" dir="s" state="M"/>
    <connection from=":gneJ3_w0" to="3" fromLane="0" toLane="0" dir="s" state="M"/>
    <connection from="33" to=":gneJ3_w0" fromLane="0" toLane="0" dir="s" state="M"/>
</net>
